/*---------------------------------------------------------------------------*\
  =========                 |
  \\      /  F ield         | OpenFOAM: The Open Source CFD Toolbox
   \\    /   O peration     | Website:  https://openfoam.org
    \\  /    A nd           | Version:  10
     \\/     M anipulation  |
\*---------------------------------------------------------------------------*/
Build  : 10-89f925dc708d
Exec   : reactingFoam -parallel -fileHandler collated
Date   : Nov 02 2025
Time   : 16:57:34
Host   : "zhouyuchen-System-Product-Name"
PID    : 25021
I/O    : collated (maxThreadFileBufferSize 2e+09)
         Threading activated since maxThreadFileBufferSize > 0.
         Requires large enough buffer to collect all data or thread support 
         enabled in MPI. If thread support cannot be enabled, deactivate
         threading by setting maxThreadFileBufferSize to 0 in
         $FOAM_ETC/controlDict
Case   : /home/zhouyuchen/Desktop/FastChemistrySolver-OpenFOAM-10/Sandia
nProcs : 6
Slaves : 
5
(
"zhouyuchen-System-Product-Name.25022"
"zhouyuchen-System-Product-Name.25023"
"zhouyuchen-System-Product-Name.25024"
"zhouyuchen-System-Product-Name.25025"
"zhouyuchen-System-Product-Name.25026"
)

Pstream initialised with:
    floatTransfer      : 0
    nProcsSimpleSum    : 0
    commsType          : nonBlocking
    polling iterations : 0
sigFpe : Enabling floating point exception trapping (FOAM_SIGFPE).
fileModificationChecking : Monitoring run-time modified files using timeStamp (fileModificationSkew 10)
allowSystemOperations : Allowing user-supplied system call operations

// * * * * * * * * * * * * * * * * * * * * * * * * * * * * * * * * * * * * * //
Create time

--> FOAM Warning : 
    From function void* Foam::dlOpen(const Foam::fileName&, bool)
    in file POSIX.C at line 1247
    dlopen error : libCCMODE.so: cannot open shared object file: No such file or directory
--> FOAM Warning : 
    From function bool Foam::dlLibraryTable::open(const Foam::fileName&, bool)
    in file db/dynamicLibrary/dlLibraryTable/dlLibraryTable.C at line 106
    could not load "libCCMODE.so"
Create mesh for time = 0


PIMPLE: No convergence criteria found


PIMPLE: Operating solver in transient mode with 1 outer corrector
PIMPLE: Operating solver in PISO mode


Reading thermophysical properties

Selecting thermodynamics package 
{
    type            hePsiThermo;
    mixture         multiComponentMixture;
    transport       sutherland;
    thermo          janaf;
    energy          sensibleEnthalpy;
    equationOfState perfectGas;
    specie          specie;
}

--> FOAM Warning : 
    From function const Foam::entry* Foam::dictionary::lookupEntryPtrBackwardsCompatible(const wordList&, bool, bool) const
    in file db/dictionary/dictionary.C at line 802
    Reading "/home/zhouyuchen/Desktop/FastChemistrySolver-OpenFOAM-10/Sandia/constant/thermophysicalProperties" from line 20 to line 1390
    Duplicate backwards compatible keywords "defaultSpecie" and "inertSpecie" are defined in dictionary "/home/zhouyuchen/Desktop/FastChemistrySolver-OpenFOAM-10/Sandia/constant/thermophysicalProperties"
The preferred keyword for this entry is "defaultSpecie"
Reading field U

Reading/calculating face flux field phi

Creating turbulence model.

Selecting turbulence model type RAS
Selecting RAS turbulence model kEpsilon
RAS
{
    RASModel        kEpsilon;
    turbulence      on;
    printCoeffs     on;
    Cmu             0.09;
    C1              1.44;
    C2              1.92;
    C3              0;
    sigmak          1;
    sigmaEps        1.3;
}

Creating thermophysical transport model

Selecting thermophysical transport type RAS
Selecting default RAS thermophysical transport model unityLewisEddyDiffusivity
Creating reaction model

Selecting combustion model laminar
Selecting chemistry solver 
{
    solver          OptSeulex;
    method          FastChemistryModel;
}

The default specie is N2
FastChemistryModel: Number of species = 36 and reactions = 219
    using integrated reaction rate
Creating field dpdt

Creating field kinetic energy K

No MRF models present

No fvModels present
No fvConstraints present
Courant Number mean: 0.0001840568067 max: 0.01286827065

Starting time loop

Courant Number mean: 0.0001840568067 max: 0.01286827065
deltaT = 1.2e-06
Time = 1.2e-06s

diagonal:  Solving for rho, Initial residual = 0, Final residual = 0, No Iterations 0
DILUPBiCGStab:  Solving for Ux, Initial residual = 9.821098637e-07, Final residual = 9.821098637e-07, No Iterations 0
DILUPBiCGStab:  Solving for Uy, Initial residual = 3.906650745e-05, Final residual = 1.012620074e-09, No Iterations 1
DILUPBiCGStab:  Solving for Uz, Initial residual = 2.44998588e-08, Final residual = 2.44998588e-08, No Iterations 0
Max/Min Unbalanced chemistry integration time: 102605/58918
DILUPBiCGStab:  Solving for H2, Initial residual = 4.691519072e-05, Final residual = 1.370044203e-09, No Iterations 1
DILUPBiCGStab:  Solving for H, Initial residual = 0.01229239335, Final residual = 1.724888811e-06, No Iterations 1
DILUPBiCGStab:  Solving for O, Initial residual = 0.0002104885222, Final residual = 8.922804583e-09, No Iterations 1
DILUPBiCGStab:  Solving for O2, Initial residual = 3.579932983e-05, Final residual = 5.086087218e-09, No Iterations 1
DILUPBiCGStab:  Solving for OH, Initial residual = 0.0006335074399, Final residual = 4.404509487e-08, No Iterations 1
DILUPBiCGStab:  Solving for H2O, Initial residual = 1.348765198e-05, Final residual = 8.019020739e-10, No Iterations 1
DILUPBiCGStab:  Solving for HO2, Initial residual = 1, Final residual = 0.0001421899974, No Iterations 1
DILUPBiCGStab:  Solving for H2O2, Initial residual = 1, Final residual = 0.0001146688869, No Iterations 1
DILUPBiCGStab:  Solving for C, Initial residual = 0.9999999994, Final residual = 7.16980636e-06, No Iterations 1
DILUPBiCGStab:  Solving for CH, Initial residual = 1, Final residual = 8.870550238e-06, No Iterations 1
DILUPBiCGStab:  Solving for CH2, Initial residual = 1, Final residual = 3.92876503e-05, No Iterations 1
DILUPBiCGStab:  Solving for CH2(S), Initial residual = 1, Final residual = 3.540145197e-05, No Iterations 1
DILUPBiCGStab:  Solving for CH3, Initial residual = 1, Final residual = 5.31933437e-05, No Iterations 1
DILUPBiCGStab:  Solving for CH4, Initial residual = 1.609146306e-06, Final residual = 8.081403743e-11, No Iterations 1
DILUPBiCGStab:  Solving for CO, Initial residual = 2.722879087e-05, Final residual = 9.592200384e-10, No Iterations 1
DILUPBiCGStab:  Solving for CO2, Initial residual = 5.329993801e-07, Final residual = 1.812200076e-11, No Iterations 1
DILUPBiCGStab:  Solving for HCO, Initial residual = 1, Final residual = 1.422774092e-05, No Iterations 1
DILUPBiCGStab:  Solving for CH2O, Initial residual = 1, Final residual = 3.772747637e-05, No Iterations 1
DILUPBiCGStab:  Solving for CH2OH, Initial residual = 1, Final residual = 1.559504063e-05, No Iterations 1
DILUPBiCGStab:  Solving for CH3O, Initial residual = 1, Final residual = 5.893879121e-05, No Iterations 1
DILUPBiCGStab:  Solving for CH3OH, Initial residual = 1, Final residual = 6.668294544e-05, No Iterations 1
DILUPBiCGStab:  Solving for C2H, Initial residual = 0.9999999752, Final residual = 7.39930865e-06, No Iterations 1
DILUPBiCGStab:  Solving for C2H2, Initial residual = 1, Final residual = 1.065242683e-05, No Iterations 1
DILUPBiCGStab:  Solving for C2H3, Initial residual = 1, Final residual = 1.100212602e-05, No Iterations 1
DILUPBiCGStab:  Solving for C2H4, Initial residual = 1, Final residual = 1.794383639e-05, No Iterations 1
DILUPBiCGStab:  Solving for C2H5, Initial residual = 1, Final residual = 1.578968353e-05, No Iterations 1
DILUPBiCGStab:  Solving for C2H6, Initial residual = 1, Final residual = 2.542642189e-05, No Iterations 1
DILUPBiCGStab:  Solving for HCCO, Initial residual = 0.9999999997, Final residual = 9.719881306e-06, No Iterations 1
DILUPBiCGStab:  Solving for CH2CO, Initial residual = 1, Final residual = 1.432886594e-05, No Iterations 1
DILUPBiCGStab:  Solving for HCCOH, Initial residual = 0.9999999874, Final residual = 7.908055735e-06, No Iterations 1
DILUPBiCGStab:  Solving for AR, Initial residual = 0, Final residual = 0, No Iterations 0
DILUPBiCGStab:  Solving for C3H7, Initial residual = 0.9999999987, Final residual = 1.566412079e-05, No Iterations 1
DILUPBiCGStab:  Solving for C3H8, Initial residual = 1, Final residual = 1.816264099e-05, No Iterations 1
DILUPBiCGStab:  Solving for CH2CHO, Initial residual = 1, Final residual = 1.574865873e-05, No Iterations 1
DILUPBiCGStab:  Solving for CH3CHO, Initial residual = 1, Final residual = 1.441584667e-05, No Iterations 1
DILUPBiCGStab:  Solving for h, Initial residual = 4.050258468e-05, Final residual = 4.907809185e-09, No Iterations 1
min/max(T) = 290.9998814, 1880.202583
DICPCG:  Solving for p, Initial residual = 0.08395899311, Final residual = 0.0001865865699, No Iterations 1
diagonal:  Solving for rho, Initial residual = 0, Final residual = 0, No Iterations 0
time step continuity errors : sum local = 3.064379593e-08, global = -4.042580943e-10, cumulative = -4.042580943e-10
DICPCG:  Solving for p, Initial residual = 0.02863033938, Final residual = 1.990533414e-08, No Iterations 3
diagonal:  Solving for rho, Initial residual = 0, Final residual = 0, No Iterations 0
time step continuity errors : sum local = 5.751950789e-12, global = -4.739512067e-12, cumulative = -4.089976064e-10
DILUPBiCGStab:  Solving for epsilon, Initial residual = 3.080845093e-07, Final residual = 3.080845093e-07, No Iterations 0
DILUPBiCGStab:  Solving for k, Initial residual = 1.27006432e-07, Final residual = 1.27006432e-07, No Iterations 0
ExecutionTime = 0.173541 s  ClockTime = 1 s

Courant Number mean: 0.0002207927829 max: 0.01455735336
deltaT = 1.44e-06
Time = 2.64e-06s

diagonal:  Solving for rho, Initial residual = 0, Final residual = 0, No Iterations 0
DILUPBiCGStab:  Solving for Ux, Initial residual = 0.0003402007433, Final residual = 1.110910566e-08, No Iterations 1
DILUPBiCGStab:  Solving for Uy, Initial residual = 4.001677339e-05, Final residual = 6.36412723e-10, No Iterations 1
DILUPBiCGStab:  Solving for Uz, Initial residual = 4.200219901e-07, Final residual = 4.200219901e-07, No Iterations 0
Max/Min Unbalanced chemistry integration time: 35390/24659
DILUPBiCGStab:  Solving for H2, Initial residual = 4.705777144e-05, Final residual = 7.736099891e-10, No Iterations 1
DILUPBiCGStab:  Solving for H, Initial residual = 0.008397781565, Final residual = 7.078783159e-07, No Iterations 1
DILUPBiCGStab:  Solving for O, Initial residual = 0.0001826583542, Final residual = 4.717747347e-09, No Iterations 1
DILUPBiCGStab:  Solving for O2, Initial residual = 1.967831688e-05, Final residual = 1.678752023e-09, No Iterations 1
DILUPBiCGStab:  Solving for OH, Initial residual = 0.0006291343533, Final residual = 2.909364872e-08, No Iterations 1
DILUPBiCGStab:  Solving for H2O, Initial residual = 1.245428353e-05, Final residual = 4.621624221e-10, No Iterations 1
DILUPBiCGStab:  Solving for HO2, Initial residual = 0.03200615557, Final residual = 2.765090331e-06, No Iterations 1
DILUPBiCGStab:  Solving for H2O2, Initial residual = 0.03597898975, Final residual = 2.480219448e-06, No Iterations 1
DILUPBiCGStab:  Solving for C, Initial residual = 0.001059715145, Final residual = 1.709300196e-09, No Iterations 1
DILUPBiCGStab:  Solving for CH, Initial residual = 0.001032423317, Final residual = 2.255089741e-09, No Iterations 1
DILUPBiCGStab:  Solving for CH2, Initial residual = 0.002064992636, Final residual = 5.292738821e-08, No Iterations 1
DILUPBiCGStab:  Solving for CH2(S), Initial residual = 0.001845912203, Final residual = 4.18597373e-08, No Iterations 1
DILUPBiCGStab:  Solving for CH3, Initial residual = 0.004040321809, Final residual = 1.300410991e-07, No Iterations 1
DILUPBiCGStab:  Solving for CH4, Initial residual = 1.356450874e-06, Final residual = 4.041593624e-11, No Iterations 1
DILUPBiCGStab:  Solving for CO, Initial residual = 3.054735519e-05, Final residual = 6.460613104e-10, No Iterations 1
DILUPBiCGStab:  Solving for CO2, Initial residual = 5.662700735e-07, Final residual = 1.12509133e-11, No Iterations 1
DILUPBiCGStab:  Solving for HCO, Initial residual = 0.001701031744, Final residual = 1.033882537e-08, No Iterations 1
DILUPBiCGStab:  Solving for CH2O, Initial residual = 0.004289672207, Final residual = 1.013098599e-07, No Iterations 1
DILUPBiCGStab:  Solving for CH2OH, Initial residual = 0.001421850762, Final residual = 1.302746017e-08, No Iterations 1
DILUPBiCGStab:  Solving for CH3O, Initial residual = 0.008238989823, Final residual = 2.644681483e-07, No Iterations 1
DILUPBiCGStab:  Solving for CH3OH, Initial residual = 0.007565655793, Final residual = 3.395614544e-07, No Iterations 1
DILUPBiCGStab:  Solving for C2H, Initial residual = 0.003009885469, Final residual = 5.148742121e-09, No Iterations 1
DILUPBiCGStab:  Solving for C2H2, Initial residual = 0.003525480583, Final residual = 1.278192204e-08, No Iterations 1
DILUPBiCGStab:  Solving for C2H3, Initial residual = 0.002082655027, Final residual = 7.540410108e-09, No Iterations 1
DILUPBiCGStab:  Solving for C2H4, Initial residual = 0.002765197704, Final residual = 1.777406887e-08, No Iterations 1
DILUPBiCGStab:  Solving for C2H5, Initial residual = 0.002938263322, Final residual = 1.773537592e-08, No Iterations 1
DILUPBiCGStab:  Solving for C2H6, Initial residual = 0.003713436464, Final residual = 4.074598603e-08, No Iterations 1
DILUPBiCGStab:  Solving for HCCO, Initial residual = 0.004227039963, Final residual = 1.105738425e-08, No Iterations 1
DILUPBiCGStab:  Solving for CH2CO, Initial residual = 0.004705904119, Final residual = 2.151993468e-08, No Iterations 1
DILUPBiCGStab:  Solving for HCCOH, Initial residual = 0.006808017015, Final residual = 1.443270874e-08, No Iterations 1
DILUPBiCGStab:  Solving for AR, Initial residual = 0, Final residual = 0, No Iterations 0
DILUPBiCGStab:  Solving for C3H7, Initial residual = 0.005504980744, Final residual = 3.095681583e-08, No Iterations 1
DILUPBiCGStab:  Solving for C3H8, Initial residual = 0.006984058871, Final residual = 4.590560429e-08, No Iterations 1
DILUPBiCGStab:  Solving for CH2CHO, Initial residual = 0.002787683714, Final residual = 1.54046746e-08, No Iterations 1
DILUPBiCGStab:  Solving for CH3CHO, Initial residual = 0.004994757366, Final residual = 2.693389072e-08, No Iterations 1
DILUPBiCGStab:  Solving for h, Initial residual = 2.938633602e-05, Final residual = 1.972383583e-09, No Iterations 1
min/max(T) = 290.9998783, 1880.398423
DICPCG:  Solving for p, Initial residual = 0.01709226122, Final residual = 1.060883528e-05, No Iterations 1
diagonal:  Solving for rho, Initial residual = 0, Final residual = 0, No Iterations 0
time step continuity errors : sum local = 3.079816271e-09, global = 5.029249563e-10, cumulative = 9.392734992e-11
DICPCG:  Solving for p, Initial residual = 0.008385121093, Final residual = 5.516616008e-08, No Iterations 2
diagonal:  Solving for rho, Initial residual = 0, Final residual = 0, No Iterations 0
time step continuity errors : sum local = 1.958847112e-11, global = 8.686863332e-13, cumulative = 9.479603626e-11
DILUPBiCGStab:  Solving for epsilon, Initial residual = 1.916878411e-07, Final residual = 1.916878411e-07, No Iterations 0
DILUPBiCGStab:  Solving for k, Initial residual = 8.132374539e-08, Final residual = 8.132374539e-08, No Iterations 0
ExecutionTime = 0.224942 s  ClockTime = 1 s

Courant Number mean: 0.0002649494232 max: 0.01745413634
deltaT = 1.728e-06
Time = 4.368e-06s

diagonal:  Solving for rho, Initial residual = 0, Final residual = 0, No Iterations 0
DILUPBiCGStab:  Solving for Ux, Initial residual = 0.0005416245332, Final residual = 2.030149156e-08, No Iterations 1
DILUPBiCGStab:  Solving for Uy, Initial residual = 4.16468489e-05, Final residual = 7.422593206e-10, No Iterations 1
DILUPBiCGStab:  Solving for Uz, Initial residual = 6.642350638e-07, Final residual = 6.642350638e-07, No Iterations 0
Max/Min Unbalanced chemistry integration time: 25803/24621
DILUPBiCGStab:  Solving for H2, Initial residual = 4.476592523e-05, Final residual = 1.224612724e-09, No Iterations 1
DILUPBiCGStab:  Solving for H, Initial residual = 0.002351419265, Final residual = 2.212331551e-07, No Iterations 1
DILUPBiCGStab:  Solving for O, Initial residual = 0.000144664679, Final residual = 7.060743749e-09, No Iterations 1
DILUPBiCGStab:  Solving for O2, Initial residual = 3.912027557e-06, Final residual = 2.490161245e-10, No Iterations 1
DILUPBiCGStab:  Solving for OH, Initial residual = 0.0005803921689, Final residual = 4.475463023e-08, No Iterations 1
DILUPBiCGStab:  Solving for H2O, Initial residual = 1.079679515e-05, Final residual = 6.786743566e-10, No Iterations 1
DILUPBiCGStab:  Solving for HO2, Initial residual = 0.003901555089, Final residual = 3.235321747e-07, No Iterations 1
DILUPBiCGStab:  Solving for H2O2, Initial residual = 0.01816818631, Final residual = 1.496816512e-06, No Iterations 1
DILUPBiCGStab:  Solving for C, Initial residual = 0.0004321854286, Final residual = 2.613190449e-09, No Iterations 1
DILUPBiCGStab:  Solving for CH, Initial residual = 0.0006553708005, Final residual = 4.017028268e-09, No Iterations 1
DILUPBiCGStab:  Solving for CH2, Initial residual = 0.001183986921, Final residual = 2.092689396e-08, No Iterations 1
DILUPBiCGStab:  Solving for CH2(S), Initial residual = 0.001144280028, Final residual = 1.688234846e-08, No Iterations 1
DILUPBiCGStab:  Solving for CH3, Initial residual = 0.001104930626, Final residual = 5.408036157e-08, No Iterations 1
DILUPBiCGStab:  Solving for CH4, Initial residual = 9.444038186e-07, Final residual = 5.177011618e-11, No Iterations 1
DILUPBiCGStab:  Solving for CO, Initial residual = 3.416340432e-05, Final residual = 1.197215054e-09, No Iterations 1
DILUPBiCGStab:  Solving for CO2, Initial residual = 5.9215276e-07, Final residual = 1.757558419e-11, No Iterations 1
DILUPBiCGStab:  Solving for HCO, Initial residual = 0.0006552413982, Final residual = 8.034832319e-09, No Iterations 1
DILUPBiCGStab:  Solving for CH2O, Initial residual = 0.002332754165, Final residual = 9.925406871e-08, No Iterations 1
DILUPBiCGStab:  Solving for CH2OH, Initial residual = 0.0006873629476, Final residual = 1.240439911e-08, No Iterations 1
DILUPBiCGStab:  Solving for CH3O, Initial residual = 0.005769792829, Final residual = 2.409528712e-07, No Iterations 1
DILUPBiCGStab:  Solving for CH3OH, Initial residual = 0.004786630036, Final residual = 3.656078925e-07, No Iterations 1
DILUPBiCGStab:  Solving for C2H, Initial residual = 0.001824880031, Final residual = 2.680637926e-09, No Iterations 1
DILUPBiCGStab:  Solving for C2H2, Initial residual = 0.001891171771, Final residual = 9.457849423e-09, No Iterations 1
DILUPBiCGStab:  Solving for C2H3, Initial residual = 0.000681930502, Final residual = 3.255514916e-09, No Iterations 1
DILUPBiCGStab:  Solving for C2H4, Initial residual = 0.001120081221, Final residual = 9.462280758e-09, No Iterations 1
DILUPBiCGStab:  Solving for C2H5, Initial residual = 0.001213807521, Final residual = 1.06087422e-08, No Iterations 1
DILUPBiCGStab:  Solving for C2H6, Initial residual = 0.002254302835, Final residual = 3.873550571e-08, No Iterations 1
DILUPBiCGStab:  Solving for HCCO, Initial residual = 0.002409793558, Final residual = 7.039222992e-09, No Iterations 1
DILUPBiCGStab:  Solving for CH2CO, Initial residual = 0.002437200827, Final residual = 1.446491932e-08, No Iterations 1
DILUPBiCGStab:  Solving for HCCOH, Initial residual = 0.003690474918, Final residual = 8.97039992e-09, No Iterations 1
DILUPBiCGStab:  Solving for AR, Initial residual = 0, Final residual = 0, No Iterations 0
DILUPBiCGStab:  Solving for C3H7, Initial residual = 0.002298236767, Final residual = 1.688986728e-08, No Iterations 1
DILUPBiCGStab:  Solving for C3H8, Initial residual = 0.004004740791, Final residual = 3.635861733e-08, No Iterations 1
DILUPBiCGStab:  Solving for CH2CHO, Initial residual = 0.0008597367548, Final residual = 6.043100269e-09, No Iterations 1
DILUPBiCGStab:  Solving for CH3CHO, Initial residual = 0.002207404443, Final residual = 1.731908841e-08, No Iterations 1
DILUPBiCGStab:  Solving for h, Initial residual = 1.029846546e-05, Final residual = 5.835092579e-10, No Iterations 1
min/max(T) = 290.9998738, 1880.587487
DICPCG:  Solving for p, Initial residual = 0.003953736703, Final residual = 4.448805501e-06, No Iterations 1
diagonal:  Solving for rho, Initial residual = 0, Final residual = 0, No Iterations 0
time step continuity errors : sum local = 1.591599803e-09, global = -5.279940561e-10, cumulative = -4.331980198e-10
DICPCG:  Solving for p, Initial residual = 0.002227065624, Final residual = 2.882669739e-08, No Iterations 2
diagonal:  Solving for rho, Initial residual = 0, Final residual = 0, No Iterations 0
time step continuity errors : sum local = 1.098804192e-11, global = 1.75671571e-12, cumulative = -4.314413041e-10
DILUPBiCGStab:  Solving for epsilon, Initial residual = 2.629206463e-07, Final residual = 2.629206463e-07, No Iterations 0
DILUPBiCGStab:  Solving for k, Initial residual = 1.173796225e-07, Final residual = 1.173796225e-07, No Iterations 0
ExecutionTime = 0.266254 s  ClockTime = 1 s

Courant Number mean: 0.0003179005634 max: 0.02090999757
deltaT = 2.0736e-06
Time = 6.4416e-06s

diagonal:  Solving for rho, Initial residual = 0, Final residual = 0, No Iterations 0
DILUPBiCGStab:  Solving for Ux, Initial residual = 0.0006861612763, Final residual = 3.014717077e-08, No Iterations 1
DILUPBiCGStab:  Solving for Uy, Initial residual = 5.213382752e-05, Final residual = 1.181637964e-09, No Iterations 1
DILUPBiCGStab:  Solving for Uz, Initial residual = 8.319365657e-07, Final residual = 8.319365657e-07, No Iterations 0
Max/Min Unbalanced chemistry integration time: 25828/24842
DILUPBiCGStab:  Solving for H2, Initial residual = 4.652506034e-05, Final residual = 1.858651603e-09, No Iterations 1
DILUPBiCGStab:  Solving for H, Initial residual = 0.001671043352, Final residual = 1.813914629e-07, No Iterations 1
DILUPBiCGStab:  Solving for O, Initial residual = 0.0001686022997, Final residual = 1.174595254e-08, No Iterations 1
DILUPBiCGStab:  Solving for O2, Initial residual = 1.797045705e-06, Final residual = 6.643891974e-11, No Iterations 1
DILUPBiCGStab:  Solving for OH, Initial residual = 0.0006871844484, Final residual = 6.738194531e-08, No Iterations 1
DILUPBiCGStab:  Solving for H2O, Initial residual = 1.243541878e-05, Final residual = 1.03147815e-09, No Iterations 1
DILUPBiCGStab:  Solving for HO2, Initial residual = 0.001791087882, Final residual = 1.272144917e-07, No Iterations 1
DILUPBiCGStab:  Solving for H2O2, Initial residual = 0.01552884627, Final residual = 1.528635423e-06, No Iterations 1
DILUPBiCGStab:  Solving for C, Initial residual = 0.0004479185716, Final residual = 2.852631445e-09, No Iterations 1
DILUPBiCGStab:  Solving for CH, Initial residual = 0.0006797924108, Final residual = 5.116842264e-09, No Iterations 1
DILUPBiCGStab:  Solving for CH2, Initial residual = 0.001300982887, Final residual = 2.997658977e-08, No Iterations 1
DILUPBiCGStab:  Solving for CH2(S), Initial residual = 0.001260914141, Final residual = 2.580863447e-08, No Iterations 1
DILUPBiCGStab:  Solving for CH3, Initial residual = 0.001066403703, Final residual = 6.12237795e-08, No Iterations 1
DILUPBiCGStab:  Solving for CH4, Initial residual = 1.036299788e-06, Final residual = 7.771734273e-11, No Iterations 1
DILUPBiCGStab:  Solving for CO, Initial residual = 3.896714838e-05, Final residual = 1.8751004e-09, No Iterations 1
DILUPBiCGStab:  Solving for CO2, Initial residual = 7.008804906e-07, Final residual = 2.620342807e-11, No Iterations 1
DILUPBiCGStab:  Solving for HCO, Initial residual = 0.0005572834738, Final residual = 1.074492386e-08, No Iterations 1
DILUPBiCGStab:  Solving for CH2O, Initial residual = 0.001984809365, Final residual = 1.248793822e-07, No Iterations 1
DILUPBiCGStab:  Solving for CH2OH, Initial residual = 0.0007816559054, Final residual = 1.878972541e-08, No Iterations 1
DILUPBiCGStab:  Solving for CH3O, Initial residual = 0.0039794935, Final residual = 2.176872921e-07, No Iterations 1
DILUPBiCGStab:  Solving for CH3OH, Initial residual = 0.003939315764, Final residual = 4.180561108e-07, No Iterations 1
DILUPBiCGStab:  Solving for C2H, Initial residual = 0.001213407121, Final residual = 3.071960786e-09, No Iterations 1
DILUPBiCGStab:  Solving for C2H2, Initial residual = 0.001169489803, Final residual = 8.799030044e-09, No Iterations 1
DILUPBiCGStab:  Solving for C2H3, Initial residual = 0.0004076044266, Final residual = 2.753067762e-09, No Iterations 1
DILUPBiCGStab:  Solving for C2H4, Initial residual = 0.0007824379749, Final residual = 9.72946466e-09, No Iterations 1
DILUPBiCGStab:  Solving for C2H5, Initial residual = 0.000623695577, Final residual = 8.304814906e-09, No Iterations 1
DILUPBiCGStab:  Solving for C2H6, Initial residual = 0.001544685743, Final residual = 3.905170929e-08, No Iterations 1
DILUPBiCGStab:  Solving for HCCO, Initial residual = 0.001451545571, Final residual = 5.338678122e-09, No Iterations 1
DILUPBiCGStab:  Solving for CH2CO, Initial residual = 0.001416816178, Final residual = 1.193815877e-08, No Iterations 1
DILUPBiCGStab:  Solving for HCCOH, Initial residual = 0.002099764204, Final residual = 6.709277747e-09, No Iterations 1
DILUPBiCGStab:  Solving for AR, Initial residual = 0, Final residual = 0, No Iterations 0
DILUPBiCGStab:  Solving for C3H7, Initial residual = 0.0009443952116, Final residual = 9.21663528e-09, No Iterations 1
DILUPBiCGStab:  Solving for C3H8, Initial residual = 0.002197277224, Final residual = 2.835499948e-08, No Iterations 1
DILUPBiCGStab:  Solving for CH2CHO, Initial residual = 0.0006297061067, Final residual = 7.233426786e-09, No Iterations 1
DILUPBiCGStab:  Solving for CH3CHO, Initial residual = 0.001102370294, Final residual = 1.326372896e-08, No Iterations 1
DILUPBiCGStab:  Solving for h, Initial residual = 1.341316963e-05, Final residual = 1.093056475e-09, No Iterations 1
min/max(T) = 290.9998701, 1880.806024
DICPCG:  Solving for p, Initial residual = 0.01204634166, Final residual = 1.555146196e-05, No Iterations 1
diagonal:  Solving for rho, Initial residual = 0, Final residual = 0, No Iterations 0
time step continuity errors : sum local = 5.887306237e-09, global = 5.208167522e-10, cumulative = 8.937544814e-11
DICPCG:  Solving for p, Initial residual = 0.006307704847, Final residual = 1.786157188e-07, No Iterations 2
diagonal:  Solving for rho, Initial residual = 0, Final residual = 0, No Iterations 0
time step continuity errors : sum local = 7.748737318e-11, global = 4.666839805e-12, cumulative = 9.404228794e-11
DILUPBiCGStab:  Solving for epsilon, Initial residual = 4.078786343e-07, Final residual = 4.078786343e-07, No Iterations 0
DILUPBiCGStab:  Solving for k, Initial residual = 1.844322331e-07, Final residual = 1.844322331e-07, No Iterations 0
ExecutionTime = 0.307735 s  ClockTime = 1 s

Courant Number mean: 0.0003814146088 max: 0.02505327912
deltaT = 2.48832e-06
Time = 8.92992e-06s

diagonal:  Solving for rho, Initial residual = 0, Final residual = 0, No Iterations 0
DILUPBiCGStab:  Solving for Ux, Initial residual = 0.001015489833, Final residual = 5.725352326e-08, No Iterations 1
DILUPBiCGStab:  Solving for Uy, Initial residual = 6.112763575e-05, Final residual = 1.580677114e-09, No Iterations 1
DILUPBiCGStab:  Solving for Uz, Initial residual = 1.240891057e-06, Final residual = 6.116928233e-11, No Iterations 1
Max/Min Unbalanced chemistry integration time: 25744/24543
DILUPBiCGStab:  Solving for H2, Initial residual = 4.773717021e-05, Final residual = 2.617572729e-09, No Iterations 1
DILUPBiCGStab:  Solving for H, Initial residual = 0.0007073633901, Final residual = 7.779157812e-08, No Iterations 1
DILUPBiCGStab:  Solving for O, Initial residual = 0.0001780613956, Final residual = 1.819073163e-08, No Iterations 1
DILUPBiCGStab:  Solving for O2, Initial residual = 1.76276454e-06, Final residual = 8.004727707e-11, No Iterations 1
DILUPBiCGStab:  Solving for OH, Initial residual = 0.0007452897728, Final residual = 9.093898326e-08, No Iterations 1
DILUPBiCGStab:  Solving for H2O, Initial residual = 1.302243551e-05, Final residual = 1.368585774e-09, No Iterations 1
DILUPBiCGStab:  Solving for HO2, Initial residual = 0.001851957133, Final residual = 1.620077584e-07, No Iterations 1
DILUPBiCGStab:  Solving for H2O2, Initial residual = 0.01297254187, Final residual = 1.530056743e-06, No Iterations 1
DILUPBiCGStab:  Solving for C, Initial residual = 0.0004543292258, Final residual = 2.175668919e-09, No Iterations 1
DILUPBiCGStab:  Solving for CH, Initial residual = 0.0005776235634, Final residual = 4.064891021e-09, No Iterations 1
DILUPBiCGStab:  Solving for CH2, Initial residual = 0.001187845761, Final residual = 4.92616172e-08, No Iterations 1
DILUPBiCGStab:  Solving for CH2(S), Initial residual = 0.00114181041, Final residual = 4.240373735e-08, No Iterations 1
DILUPBiCGStab:  Solving for CH3, Initial residual = 0.000928684286, Final residual = 6.189201117e-08, No Iterations 1
DILUPBiCGStab:  Solving for CH4, Initial residual = 1.05519681e-06, Final residual = 1.085539857e-10, No Iterations 1
DILUPBiCGStab:  Solving for CO, Initial residual = 4.316105426e-05, Final residual = 2.70924848e-09, No Iterations 1
DILUPBiCGStab:  Solving for CO2, Initial residual = 8.314544704e-07, Final residual = 3.597964553e-11, No Iterations 1
DILUPBiCGStab:  Solving for HCO, Initial residual = 0.0004489365218, Final residual = 1.162560875e-08, No Iterations 1
DILUPBiCGStab:  Solving for CH2O, Initial residual = 0.001757600459, Final residual = 1.601388385e-07, No Iterations 1
DILUPBiCGStab:  Solving for CH2OH, Initial residual = 0.0007358647098, Final residual = 2.354184961e-08, No Iterations 1
DILUPBiCGStab:  Solving for CH3O, Initial residual = 0.002764429504, Final residual = 1.993602983e-07, No Iterations 1
DILUPBiCGStab:  Solving for CH3OH, Initial residual = 0.003411228839, Final residual = 4.739917224e-07, No Iterations 1
DILUPBiCGStab:  Solving for C2H, Initial residual = 0.0007591813554, Final residual = 2.872953891e-09, No Iterations 1
DILUPBiCGStab:  Solving for C2H2, Initial residual = 0.0008793475849, Final residual = 9.873449839e-09, No Iterations 1
DILUPBiCGStab:  Solving for C2H3, Initial residual = 0.0002001825178, Final residual = 1.685334296e-09, No Iterations 1
DILUPBiCGStab:  Solving for C2H4, Initial residual = 0.0006317184948, Final residual = 1.111055841e-08, No Iterations 1
DILUPBiCGStab:  Solving for C2H5, Initial residual = 0.0003166106685, Final residual = 7.375568006e-09, No Iterations 1
DILUPBiCGStab:  Solving for C2H6, Initial residual = 0.0009991784679, Final residual = 3.760041953e-08, No Iterations 1
DILUPBiCGStab:  Solving for HCCO, Initial residual = 0.001026694736, Final residual = 5.131295298e-09, No Iterations 1
DILUPBiCGStab:  Solving for CH2CO, Initial residual = 0.00106393602, Final residual = 1.237047447e-08, No Iterations 1
DILUPBiCGStab:  Solving for HCCOH, Initial residual = 0.001449889436, Final residual = 6.721458897e-09, No Iterations 1
DILUPBiCGStab:  Solving for AR, Initial residual = 0, Final residual = 0, No Iterations 0
DILUPBiCGStab:  Solving for C3H7, Initial residual = 0.0006309262092, Final residual = 8.452107101e-09, No Iterations 1
DILUPBiCGStab:  Solving for C3H8, Initial residual = 0.001447715452, Final residual = 2.663974526e-08, No Iterations 1
DILUPBiCGStab:  Solving for CH2CHO, Initial residual = 0.000366453147, Final residual = 6.291862268e-09, No Iterations 1
DILUPBiCGStab:  Solving for CH3CHO, Initial residual = 0.0009158575592, Final residual = 1.762817287e-08, No Iterations 1
DILUPBiCGStab:  Solving for h, Initial residual = 1.568165129e-05, Final residual = 1.698115959e-09, No Iterations 1
min/max(T) = 290.9998645, 1881.06285
DICPCG:  Solving for p, Initial residual = 0.004526375688, Final residual = 6.184000734e-06, No Iterations 1
diagonal:  Solving for rho, Initial residual = 0, Final residual = 0, No Iterations 0
time step continuity errors : sum local = 2.688583131e-09, global = -1.667833596e-10, cumulative = -7.274107166e-11
DICPCG:  Solving for p, Initial residual = 0.002526168374, Final residual = 1.224744272e-07, No Iterations 2
diagonal:  Solving for rho, Initial residual = 0, Final residual = 0, No Iterations 0
time step continuity errors : sum local = 5.723907599e-11, global = 1.123692137e-11, cumulative = -6.150415029e-11
DILUPBiCGStab:  Solving for epsilon, Initial residual = 5.781270053e-07, Final residual = 5.781270053e-07, No Iterations 0
DILUPBiCGStab:  Solving for k, Initial residual = 2.693246261e-07, Final residual = 2.693246261e-07, No Iterations 0
ExecutionTime = 0.348446 s  ClockTime = 1 s

Courant Number mean: 0.0004576917572 max: 0.03009679591
deltaT = 2.985984e-06
Time = 1.1915904e-05s

diagonal:  Solving for rho, Initial residual = 0, Final residual = 0, No Iterations 0
DILUPBiCGStab:  Solving for Ux, Initial residual = 0.001283526473, Final residual = 9.155844387e-08, No Iterations 1
DILUPBiCGStab:  Solving for Uy, Initial residual = 7.420338731e-05, Final residual = 2.312931927e-09, No Iterations 1
DILUPBiCGStab:  Solving for Uz, Initial residual = 1.568440878e-06, Final residual = 9.611024166e-11, No Iterations 1
Max/Min Unbalanced chemistry integration time: 25680/24555
DILUPBiCGStab:  Solving for H2, Initial residual = 5.042210211e-05, Final residual = 3.662660506e-09, No Iterations 1
DILUPBiCGStab:  Solving for H, Initial residual = 0.0001587191895, Final residual = 1.064100044e-08, No Iterations 1
DILUPBiCGStab:  Solving for O, Initial residual = 0.0001925516614, Final residual = 2.774346158e-08, No Iterations 1
DILUPBiCGStab:  Solving for O2, Initial residual = 3.400310524e-06, Final residual = 3.500642085e-10, No Iterations 1
DILUPBiCGStab:  Solving for OH, Initial residual = 0.0008164658182, Final residual = 1.215198025e-07, No Iterations 1
DILUPBiCGStab:  Solving for H2O, Initial residual = 1.375086275e-05, Final residual = 1.790940773e-09, No Iterations 1
DILUPBiCGStab:  Solving for HO2, Initial residual = 0.003865620797, Final residual = 5.607036077e-07, No Iterations 1
DILUPBiCGStab:  Solving for H2O2, Initial residual = 0.01157852153, Final residual = 1.644459026e-06, No Iterations 1
DILUPBiCGStab:  Solving for C, Initial residual = 0.0004838260817, Final residual = 2.39398183e-09, No Iterations 1
DILUPBiCGStab:  Solving for CH, Initial residual = 0.0005431549321, Final residual = 3.869051907e-09, No Iterations 1
DILUPBiCGStab:  Solving for CH2, Initial residual = 0.00118845422, Final residual = 8.161745968e-08, No Iterations 1
DILUPBiCGStab:  Solving for CH2(S), Initial residual = 0.001130638557, Final residual = 6.923271545e-08, No Iterations 1
DILUPBiCGStab:  Solving for CH3, Initial residual = 0.0008653523072, Final residual = 6.880902831e-08, No Iterations 1
DILUPBiCGStab:  Solving for CH4, Initial residual = 1.099133498e-06, Final residual = 1.504744375e-10, No Iterations 1
DILUPBiCGStab:  Solving for CO, Initial residual = 4.796275886e-05, Final residual = 3.848917543e-09, No Iterations 1
DILUPBiCGStab:  Solving for CO2, Initial residual = 1.010359702e-06, Final residual = 4.991122398e-11, No Iterations 1
DILUPBiCGStab:  Solving for HCO, Initial residual = 0.0005179564031, Final residual = 1.430552954e-08, No Iterations 1
DILUPBiCGStab:  Solving for CH2O, Initial residual = 0.001700493777, Final residual = 2.099631066e-07, No Iterations 1
DILUPBiCGStab:  Solving for CH2OH, Initial residual = 0.0007791491716, Final residual = 2.898982641e-08, No Iterations 1
DILUPBiCGStab:  Solving for CH3O, Initial residual = 0.002184471524, Final residual = 2.058036633e-07, No Iterations 1
DILUPBiCGStab:  Solving for CH3OH, Initial residual = 0.003160342447, Final residual = 5.427964304e-07, No Iterations 1
DILUPBiCGStab:  Solving for C2H, Initial residual = 0.0004810832034, Final residual = 3.593426825e-09, No Iterations 1
DILUPBiCGStab:  Solving for C2H2, Initial residual = 0.000672672258, Final residual = 1.194922559e-08, No Iterations 1
DILUPBiCGStab:  Solving for C2H3, Initial residual = 0.0001450573484, Final residual = 1.504755307e-09, No Iterations 1
DILUPBiCGStab:  Solving for C2H4, Initial residual = 0.0005439591375, Final residual = 1.347987262e-08, No Iterations 1
DILUPBiCGStab:  Solving for C2H5, Initial residual = 0.0002528734937, Final residual = 8.787143007e-09, No Iterations 1
DILUPBiCGStab:  Solving for C2H6, Initial residual = 0.0007781962847, Final residual = 4.199844098e-08, No Iterations 1
DILUPBiCGStab:  Solving for HCCO, Initial residual = 0.0007177098791, Final residual = 5.7296908e-09, No Iterations 1
DILUPBiCGStab:  Solving for CH2CO, Initial residual = 0.0008139925592, Final residual = 1.379009391e-08, No Iterations 1
DILUPBiCGStab:  Solving for HCCOH, Initial residual = 0.001005259596, Final residual = 7.81237363e-09, No Iterations 1
DILUPBiCGStab:  Solving for AR, Initial residual = 0, Final residual = 0, No Iterations 0
DILUPBiCGStab:  Solving for C3H7, Initial residual = 0.0004426867373, Final residual = 9.857055048e-09, No Iterations 1
DILUPBiCGStab:  Solving for C3H8, Initial residual = 0.001020043861, Final residual = 2.671044761e-08, No Iterations 1
DILUPBiCGStab:  Solving for CH2CHO, Initial residual = 0.0003121003804, Final residual = 7.402015015e-09, No Iterations 1
DILUPBiCGStab:  Solving for CH3CHO, Initial residual = 0.0006699872402, Final residual = 2.094017195e-08, No Iterations 1
DILUPBiCGStab:  Solving for h, Initial residual = 1.377908724e-05, Final residual = 1.789628622e-09, No Iterations 1
min/max(T) = 290.9998589, 1881.357371
DICPCG:  Solving for p, Initial residual = 0.006820846205, Final residual = 1.588949248e-05, No Iterations 1
diagonal:  Solving for rho, Initial residual = 0, Final residual = 0, No Iterations 0
time step continuity errors : sum local = 7.414909998e-09, global = 3.395289301e-10, cumulative = 2.780247798e-10
DICPCG:  Solving for p, Initial residual = 0.003764328064, Final residual = 4.189602515e-07, No Iterations 2
diagonal:  Solving for rho, Initial residual = 0, Final residual = 0, No Iterations 0
time step continuity errors : sum local = 2.125623838e-10, global = 1.497582922e-11, cumulative = 2.93000609e-10
DILUPBiCGStab:  Solving for epsilon, Initial residual = 7.914987552e-07, Final residual = 7.914987552e-07, No Iterations 0
DILUPBiCGStab:  Solving for k, Initial residual = 3.859313907e-07, Final residual = 3.859313907e-07, No Iterations 0
ExecutionTime = 0.38899 s  ClockTime = 1 s

Courant Number mean: 0.0005493052251 max: 0.03655720384
deltaT = 3.5831808e-06
Time = 1.54990848e-05s

diagonal:  Solving for rho, Initial residual = 0, Final residual = 0, No Iterations 0
DILUPBiCGStab:  Solving for Ux, Initial residual = 0.00167494071, Final residual = 1.536771392e-07, No Iterations 1
DILUPBiCGStab:  Solving for Uy, Initial residual = 8.805661824e-05, Final residual = 3.459026612e-09, No Iterations 1
DILUPBiCGStab:  Solving for Uz, Initial residual = 2.039328011e-06, Final residual = 1.62657456e-10, No Iterations 1
Max/Min Unbalanced chemistry integration time: 25538/24582
DILUPBiCGStab:  Solving for H2, Initial residual = 5.462620773e-05, Final residual = 5.13973316e-09, No Iterations 1
DILUPBiCGStab:  Solving for H, Initial residual = 9.222694834e-05, Final residual = 5.601649603e-09, No Iterations 1
DILUPBiCGStab:  Solving for O, Initial residual = 0.0002121263799, Final residual = 4.152183212e-08, No Iterations 1
DILUPBiCGStab:  Solving for O2, Initial residual = 3.332004842e-06, Final residual = 4.105217675e-10, No Iterations 1
DILUPBiCGStab:  Solving for OH, Initial residual = 0.0008873082751, Final residual = 1.591499056e-07, No Iterations 1
DILUPBiCGStab:  Solving for H2O, Initial residual = 1.455356309e-05, Final residual = 2.305702192e-09, No Iterations 1
DILUPBiCGStab:  Solving for HO2, Initial residual = 0.004051262296, Final residual = 7.299697983e-07, No Iterations 1
DILUPBiCGStab:  Solving for H2O2, Initial residual = 0.01050923021, Final residual = 1.809050621e-06, No Iterations 1
DILUPBiCGStab:  Solving for C, Initial residual = 0.0004991751968, Final residual = 3.101349179e-09, No Iterations 1
DILUPBiCGStab:  Solving for CH, Initial residual = 0.0005439910294, Final residual = 4.741694918e-09, No Iterations 1
DILUPBiCGStab:  Solving for CH2, Initial residual = 0.001275061511, Final residual = 1.289249424e-07, No Iterations 1
DILUPBiCGStab:  Solving for CH2(S), Initial residual = 0.001199371524, Final residual = 1.090854492e-07, No Iterations 1
DILUPBiCGStab:  Solving for CH3, Initial residual = 0.0008092187481, Final residual = 8.386472713e-08, No Iterations 1
DILUPBiCGStab:  Solving for CH4, Initial residual = 1.145751098e-06, Final residual = 1.985746165e-10, No Iterations 1
DILUPBiCGStab:  Solving for CO, Initial residual = 5.300497996e-05, Final residual = 5.344505063e-09, No Iterations 1
DILUPBiCGStab:  Solving for CO2, Initial residual = 1.228095686e-06, Final residual = 6.834903961e-11, No Iterations 1
DILUPBiCGStab:  Solving for HCO, Initial residual = 0.0005858144161, Final residual = 1.873667941e-08, No Iterations 1
DILUPBiCGStab:  Solving for CH2O, Initial residual = 0.001680072667, Final residual = 2.678148857e-07, No Iterations 1
DILUPBiCGStab:  Solving for CH2OH, Initial residual = 0.0008488431589, Final residual = 3.889731038e-08, No Iterations 1
DILUPBiCGStab:  Solving for CH3O, Initial residual = 0.001780379051, Final residual = 2.218814443e-07, No Iterations 1
DILUPBiCGStab:  Solving for CH3OH, Initial residual = 0.002997659962, Final residual = 6.108111194e-07, No Iterations 1
DILUPBiCGStab:  Solving for C2H, Initial residual = 0.0003852402088, Final residual = 4.637832866e-09, No Iterations 1
DILUPBiCGStab:  Solving for C2H2, Initial residual = 0.0005714035568, Final residual = 1.599116186e-08, No Iterations 1
DILUPBiCGStab:  Solving for C2H3, Initial residual = 7.485895543e-05, Final residual = 6.65586907e-10, No Iterations 1
DILUPBiCGStab:  Solving for C2H4, Initial residual = 0.0004822762164, Final residual = 1.729083654e-08, No Iterations 1
DILUPBiCGStab:  Solving for C2H5, Initial residual = 0.000297600094, Final residual = 1.417498756e-08, No Iterations 1
DILUPBiCGStab:  Solving for C2H6, Initial residual = 0.0006228087701, Final residual = 4.750217298e-08, No Iterations 1
DILUPBiCGStab:  Solving for HCCO, Initial residual = 0.0004860823949, Final residual = 7.033623086e-09, No Iterations 1
DILUPBiCGStab:  Solving for CH2CO, Initial residual = 0.0006536977882, Final residual = 1.731185128e-08, No Iterations 1
DILUPBiCGStab:  Solving for HCCOH, Initial residual = 0.0006801015423, Final residual = 9.961448409e-09, No Iterations 1
DILUPBiCGStab:  Solving for AR, Initial residual = 0, Final residual = 0, No Iterations 0
DILUPBiCGStab:  Solving for C3H7, Initial residual = 0.0002979123643, Final residual = 1.036995253e-08, No Iterations 1
DILUPBiCGStab:  Solving for C3H8, Initial residual = 0.0007503112145, Final residual = 2.872155409e-08, No Iterations 1
DILUPBiCGStab:  Solving for CH2CHO, Initial residual = 0.0003071580192, Final residual = 9.799693772e-09, No Iterations 1
DILUPBiCGStab:  Solving for CH3CHO, Initial residual = 0.0005248018084, Final residual = 2.716081422e-08, No Iterations 1
DILUPBiCGStab:  Solving for h, Initial residual = 1.558864374e-05, Final residual = 2.516867969e-09, No Iterations 1
min/max(T) = 290.9998522, 1881.705256
DICPCG:  Solving for p, Initial residual = 0.006051501217, Final residual = 2.170521368e-05, No Iterations 1
diagonal:  Solving for rho, Initial residual = 0, Final residual = 0, No Iterations 0
time step continuity errors : sum local = 1.100726059e-08, global = -1.016967257e-09, cumulative = -7.23966648e-10
DICPCG:  Solving for p, Initial residual = 0.003404663277, Final residual = 7.135390569e-07, No Iterations 2
diagonal:  Solving for rho, Initial residual = 0, Final residual = 0, No Iterations 0
time step continuity errors : sum local = 3.858209556e-10, global = 1.132339071e-10, cumulative = -6.107327408e-10
DILUPBiCGStab:  Solving for epsilon, Initial residual = 1.042465056e-06, Final residual = 2.624463423e-11, No Iterations 1
DILUPBiCGStab:  Solving for k, Initial residual = 5.324208946e-07, Final residual = 5.324208946e-07, No Iterations 0
ExecutionTime = 0.430645 s  ClockTime = 1 s

Courant Number mean: 0.0006593183666 max: 0.04451495643
deltaT = 4.29981696e-06
Time = 1.979890176e-05s

diagonal:  Solving for rho, Initial residual = 0, Final residual = 0, No Iterations 0
DILUPBiCGStab:  Solving for Ux, Initial residual = 0.002062974537, Final residual = 2.49749439e-07, No Iterations 1
DILUPBiCGStab:  Solving for Uy, Initial residual = 0.0001053416635, Final residual = 4.871580736e-09, No Iterations 1
DILUPBiCGStab:  Solving for Uz, Initial residual = 2.54948137e-06, Final residual = 2.664627462e-10, No Iterations 1
Max/Min Unbalanced chemistry integration time: 25810/24533
DILUPBiCGStab:  Solving for H2, Initial residual = 6.081377575e-05, Final residual = 7.315065774e-09, No Iterations 1
DILUPBiCGStab:  Solving for H, Initial residual = 7.103051912e-05, Final residual = 4.427767374e-09, No Iterations 1
DILUPBiCGStab:  Solving for O, Initial residual = 0.0002342937702, Final residual = 5.914172268e-08, No Iterations 1
DILUPBiCGStab:  Solving for O2, Initial residual = 3.351882969e-06, Final residual = 4.955335208e-10, No Iterations 1
DILUPBiCGStab:  Solving for OH, Initial residual = 0.0009554676641, Final residual = 2.054442464e-07, No Iterations 1
DILUPBiCGStab:  Solving for H2O, Initial residual = 1.529898614e-05, Final residual = 2.894123829e-09, No Iterations 1
DILUPBiCGStab:  Solving for HO2, Initial residual = 0.004303365579, Final residual = 9.832985069e-07, No Iterations 1
DILUPBiCGStab:  Solving for H2O2, Initial residual = 0.009693372543, Final residual = 2.037122089e-06, No Iterations 1
DILUPBiCGStab:  Solving for C, Initial residual = 0.0005137698695, Final residual = 4.387240704e-09, No Iterations 1
DILUPBiCGStab:  Solving for CH, Initial residual = 0.0005691599184, Final residual = 6.77107935e-09, No Iterations 1
DILUPBiCGStab:  Solving for CH2, Initial residual = 0.001453811907, Final residual = 1.957320844e-07, No Iterations 1
DILUPBiCGStab:  Solving for CH2(S), Initial residual = 0.001343985266, Final residual = 1.656576148e-07, No Iterations 1
DILUPBiCGStab:  Solving for CH3, Initial residual = 0.0007705892182, Final residual = 1.089392383e-07, No Iterations 1
DILUPBiCGStab:  Solving for CH4, Initial residual = 1.225277928e-06, Final residual = 2.532338605e-10, No Iterations 1
DILUPBiCGStab:  Solving for CO, Initial residual = 5.850365374e-05, Final residual = 7.366012484e-09, No Iterations 1
DILUPBiCGStab:  Solving for CO2, Initial residual = 1.497249463e-06, Final residual = 9.374766062e-11, No Iterations 1
DILUPBiCGStab:  Solving for HCO, Initial residual = 0.0006519958689, Final residual = 2.63645328e-08, No Iterations 1
DILUPBiCGStab:  Solving for CH2O, Initial residual = 0.001688675269, Final residual = 3.359816336e-07, No Iterations 1
DILUPBiCGStab:  Solving for CH2OH, Initial residual = 0.0009376286364, Final residual = 5.684927309e-08, No Iterations 1
DILUPBiCGStab:  Solving for CH3O, Initial residual = 0.001475775265, Final residual = 2.448154602e-07, No Iterations 1
DILUPBiCGStab:  Solving for CH3OH, Initial residual = 0.002896509837, Final residual = 6.829405266e-07, No Iterations 1
DILUPBiCGStab:  Solving for C2H, Initial residual = 0.0003986588256, Final residual = 5.024820571e-09, No Iterations 1
DILUPBiCGStab:  Solving for C2H2, Initial residual = 0.0004964541343, Final residual = 2.141589046e-08, No Iterations 1
DILUPBiCGStab:  Solving for C2H3, Initial residual = 0.0001752097389, Final residual = 3.515664531e-09, No Iterations 1
DILUPBiCGStab:  Solving for C2H4, Initial residual = 0.0004472428909, Final residual = 2.216113533e-08, No Iterations 1
DILUPBiCGStab:  Solving for C2H5, Initial residual = 0.000303594158, Final residual = 2.063154275e-08, No Iterations 1
DILUPBiCGStab:  Solving for C2H6, Initial residual = 0.000519761879, Final residual = 5.513851145e-08, No Iterations 1
DILUPBiCGStab:  Solving for HCCO, Initial residual = 0.0004344424128, Final residual = 7.817873172e-09, No Iterations 1
DILUPBiCGStab:  Solving for CH2CO, Initial residual = 0.0005510292073, Final residual = 2.176242423e-08, No Iterations 1
DILUPBiCGStab:  Solving for HCCOH, Initial residual = 0.0005083006776, Final residual = 1.221583661e-08, No Iterations 1
DILUPBiCGStab:  Solving for AR, Initial residual = 0, Final residual = 0, No Iterations 0
DILUPBiCGStab:  Solving for C3H7, Initial residual = 0.0002935177654, Final residual = 1.405411549e-08, No Iterations 1
DILUPBiCGStab:  Solving for C3H8, Initial residual = 0.0005637155057, Final residual = 3.081628127e-08, No Iterations 1
DILUPBiCGStab:  Solving for CH2CHO, Initial residual = 0.0003736133741, Final residual = 1.605001895e-08, No Iterations 1
DILUPBiCGStab:  Solving for CH3CHO, Initial residual = 0.0004513910589, Final residual = 3.569024337e-08, No Iterations 1
DILUPBiCGStab:  Solving for h, Initial residual = 1.611529276e-05, Final residual = 3.109329718e-09, No Iterations 1
min/max(T) = 290.9998451, 1883.229196
DICPCG:  Solving for p, Initial residual = 0.006462336817, Final residual = 3.544339694e-05, No Iterations 1
diagonal:  Solving for rho, Initial residual = 0, Final residual = 0, No Iterations 0
time step continuity errors : sum local = 1.914895556e-08, global = -2.412641926e-09, cumulative = -3.023374667e-09
DICPCG:  Solving for p, Initial residual = 0.003650473038, Final residual = 4.029585893e-08, No Iterations 3
diagonal:  Solving for rho, Initial residual = 0, Final residual = 0, No Iterations 0
time step continuity errors : sum local = 2.311498251e-11, global = -1.411508221e-11, cumulative = -3.037489749e-09
DILUPBiCGStab:  Solving for epsilon, Initial residual = 2.105609001e-06, Final residual = 7.360793425e-11, No Iterations 1
DILUPBiCGStab:  Solving for k, Initial residual = 6.868510621e-07, Final residual = 6.868510621e-07, No Iterations 0
ExecutionTime = 0.471781 s  ClockTime = 1 s

Courant Number mean: 0.0007914418655 max: 0.0538979046
deltaT = 5.159780352e-06
Time = 2.495868211e-05s

diagonal:  Solving for rho, Initial residual = 0, Final residual = 0, No Iterations 0
DILUPBiCGStab:  Solving for Ux, Initial residual = 0.002570000211, Final residual = 4.016827769e-07, No Iterations 1
DILUPBiCGStab:  Solving for Uy, Initial residual = 0.0001247806231, Final residual = 6.949413151e-09, No Iterations 1
DILUPBiCGStab:  Solving for Uz, Initial residual = 3.170510674e-06, Final residual = 4.578609821e-10, No Iterations 1
Max/Min Unbalanced chemistry integration time: 25517/24559
DILUPBiCGStab:  Solving for H2, Initial residual = 6.866761765e-05, Final residual = 1.0084099e-08, No Iterations 1
DILUPBiCGStab:  Solving for H, Initial residual = 6.149055046e-05, Final residual = 3.954403931e-09, No Iterations 1
DILUPBiCGStab:  Solving for O, Initial residual = 0.0002628157714, Final residual = 8.1003906e-08, No Iterations 1
DILUPBiCGStab:  Solving for O2, Initial residual = 3.277174173e-06, Final residual = 5.753552403e-10, No Iterations 1
DILUPBiCGStab:  Solving for OH, Initial residual = 0.001021013656, Final residual = 2.626996604e-07, No Iterations 1
DILUPBiCGStab:  Solving for H2O, Initial residual = 1.603723337e-05, Final residual = 3.599734099e-09, No Iterations 1
DILUPBiCGStab:  Solving for HO2, Initial residual = 0.004389375456, Final residual = 1.276222393e-06, No Iterations 1
DILUPBiCGStab:  Solving for H2O2, Initial residual = 0.009004737971, Final residual = 2.328278452e-06, No Iterations 1
DILUPBiCGStab:  Solving for C, Initial residual = 0.0005457512658, Final residual = 7.741588205e-09, No Iterations 1
DILUPBiCGStab:  Solving for CH, Initial residual = 0.0006271668371, Final residual = 1.176487712e-08, No Iterations 1
DILUPBiCGStab:  Solving for CH2, Initial residual = 0.001732746792, Final residual = 2.891490464e-07, No Iterations 1
DILUPBiCGStab:  Solving for CH2(S), Initial residual = 0.00156838845, Final residual = 2.457215849e-07, No Iterations 1
DILUPBiCGStab:  Solving for CH3, Initial residual = 0.0007456938669, Final residual = 1.409758734e-07, No Iterations 1
DILUPBiCGStab:  Solving for CH4, Initial residual = 1.316019333e-06, Final residual = 3.075180242e-10, No Iterations 1
DILUPBiCGStab:  Solving for CO, Initial residual = 6.442242109e-05, Final residual = 1.017963986e-08, No Iterations 1
DILUPBiCGStab:  Solving for CO2, Initial residual = 1.779728894e-06, Final residual = 1.271229898e-10, No Iterations 1
DILUPBiCGStab:  Solving for HCO, Initial residual = 0.0007267840942, Final residual = 3.944879852e-08, No Iterations 1
DILUPBiCGStab:  Solving for CH2O, Initial residual = 0.001709184287, Final residual = 4.153589479e-07, No Iterations 1
DILUPBiCGStab:  Solving for CH2OH, Initial residual = 0.001046695165, Final residual = 9.016051613e-08, No Iterations 1
DILUPBiCGStab:  Solving for CH3O, Initial residual = 0.001242346077, Final residual = 2.755506244e-07, No Iterations 1
DILUPBiCGStab:  Solving for CH3OH, Initial residual = 0.002822015824, Final residual = 7.595993051e-07, No Iterations 1
DILUPBiCGStab:  Solving for C2H, Initial residual = 0.0002687242677, Final residual = 2.872678163e-09, No Iterations 1
DILUPBiCGStab:  Solving for C2H2, Initial residual = 0.0005163968071, Final residual = 3.257132915e-08, No Iterations 1
DILUPBiCGStab:  Solving for C2H3, Initial residual = 0.0002683720266, Final residual = 8.884161614e-09, No Iterations 1
DILUPBiCGStab:  Solving for C2H4, Initial residual = 0.0004159425883, Final residual = 2.888663198e-08, No Iterations 1
DILUPBiCGStab:  Solving for C2H5, Initial residual = 0.0003413245442, Final residual = 2.974000197e-08, No Iterations 1
DILUPBiCGStab:  Solving for C2H6, Initial residual = 0.0004432316684, Final residual = 6.448849667e-08, No Iterations 1
DILUPBiCGStab:  Solving for HCCO, Initial residual = 0.0002796277177, Final residual = 6.529836305e-09, No Iterations 1
DILUPBiCGStab:  Solving for CH2CO, Initial residual = 0.0004632131985, Final residual = 2.863344719e-08, No Iterations 1
DILUPBiCGStab:  Solving for HCCOH, Initial residual = 0.0004446869071, Final residual = 1.418434624e-08, No Iterations 1
DILUPBiCGStab:  Solving for AR, Initial residual = 0, Final residual = 0, No Iterations 0
DILUPBiCGStab:  Solving for C3H7, Initial residual = 0.0003250775421, Final residual = 2.090143915e-08, No Iterations 1
DILUPBiCGStab:  Solving for C3H8, Initial residual = 0.0004312675421, Final residual = 3.390952722e-08, No Iterations 1
DILUPBiCGStab:  Solving for CH2CHO, Initial residual = 0.0004382347958, Final residual = 2.61891171e-08, No Iterations 1
DILUPBiCGStab:  Solving for CH3CHO, Initial residual = 0.0004224525574, Final residual = 4.808967034e-08, No Iterations 1
DILUPBiCGStab:  Solving for h, Initial residual = 1.729359417e-05, Final residual = 3.975554249e-09, No Iterations 1
min/max(T) = 290.9998377, 1884.465859
DICPCG:  Solving for p, Initial residual = 0.006606755155, Final residual = 5.799538112e-05, No Iterations 1
diagonal:  Solving for rho, Initial residual = 0, Final residual = 0, No Iterations 0
time step continuity errors : sum local = 3.32388538e-08, global = -7.527056384e-09, cumulative = -1.056454613e-08
DICPCG:  Solving for p, Initial residual = 0.003772603932, Final residual = 1.099404304e-07, No Iterations 3
diagonal:  Solving for rho, Initial residual = 0, Final residual = 0, No Iterations 0
time step continuity errors : sum local = 6.613332322e-11, global = -3.189665467e-11, cumulative = -1.059644279e-08
DILUPBiCGStab:  Solving for epsilon, Initial residual = 2.133609262e-06, Final residual = 9.98900514e-11, No Iterations 1
DILUPBiCGStab:  Solving for k, Initial residual = 8.723419571e-07, Final residual = 8.723419571e-07, No Iterations 0
ExecutionTime = 0.51241 s  ClockTime = 1 s

Courant Number mean: 0.0009501800486 max: 0.06448990459
deltaT = 6.191736422e-06
Time = 3.115041853e-05s

diagonal:  Solving for rho, Initial residual = 0, Final residual = 0, No Iterations 0
DILUPBiCGStab:  Solving for Ux, Initial residual = 0.003180033053, Final residual = 6.227090606e-07, No Iterations 1
DILUPBiCGStab:  Solving for Uy, Initial residual = 0.000151412141, Final residual = 9.820692048e-09, No Iterations 1
DILUPBiCGStab:  Solving for Uz, Initial residual = 3.973151586e-06, Final residual = 7.519146297e-10, No Iterations 1
Max/Min Unbalanced chemistry integration time: 25458/24542
DILUPBiCGStab:  Solving for H2, Initial residual = 7.896965332e-05, Final residual = 1.297707439e-08, No Iterations 1
DILUPBiCGStab:  Solving for H, Initial residual = 5.988583831e-05, Final residual = 3.822374217e-09, No Iterations 1
DILUPBiCGStab:  Solving for O, Initial residual = 0.0002969140124, Final residual = 1.068853267e-07, No Iterations 1
DILUPBiCGStab:  Solving for O2, Initial residual = 3.222520922e-06, Final residual = 6.827221662e-10, No Iterations 1
DILUPBiCGStab:  Solving for OH, Initial residual = 0.001080877996, Final residual = 3.332988462e-07, No Iterations 1
DILUPBiCGStab:  Solving for H2O, Initial residual = 1.667929756e-05, Final residual = 4.458994583e-09, No Iterations 1
DILUPBiCGStab:  Solving for HO2, Initial residual = 0.004454394577, Final residual = 1.658819879e-06, No Iterations 1
DILUPBiCGStab:  Solving for H2O2, Initial residual = 0.008396918501, Final residual = 2.690990804e-06, No Iterations 1
DILUPBiCGStab:  Solving for C, Initial residual = 0.0006414495321, Final residual = 1.706633622e-08, No Iterations 1
DILUPBiCGStab:  Solving for CH, Initial residual = 0.0007467796417, Final residual = 2.34753597e-08, No Iterations 1
DILUPBiCGStab:  Solving for CH2, Initial residual = 0.002125272637, Final residual = 4.253292627e-07, No Iterations 1
DILUPBiCGStab:  Solving for CH2(S), Initial residual = 0.001888932334, Final residual = 3.636807222e-07, No Iterations 1
DILUPBiCGStab:  Solving for CH3, Initial residual = 0.0007423091259, Final residual = 1.842398605e-07, No Iterations 1
DILUPBiCGStab:  Solving for CH4, Initial residual = 1.421649223e-06, Final residual = 3.474573718e-10, No Iterations 1
DILUPBiCGStab:  Solving for CO, Initial residual = 7.071083717e-05, Final residual = 1.427747624e-08, No Iterations 1
DILUPBiCGStab:  Solving for CO2, Initial residual = 2.062143987e-06, Final residual = 1.697118142e-10, No Iterations 1
DILUPBiCGStab:  Solving for HCO, Initial residual = 0.0008192815203, Final residual = 6.375499182e-08, No Iterations 1
DILUPBiCGStab:  Solving for CH2O, Initial residual = 0.001735616029, Final residual = 5.091229036e-07, No Iterations 1
DILUPBiCGStab:  Solving for CH2OH, Initial residual = 0.001184408299, Final residual = 1.565748863e-07, No Iterations 1
DILUPBiCGStab:  Solving for CH3O, Initial residual = 0.001047028466, Final residual = 3.109055519e-07, No Iterations 1
DILUPBiCGStab:  Solving for CH3OH, Initial residual = 0.002761122108, Final residual = 8.455728383e-07, No Iterations 1
DILUPBiCGStab:  Solving for C2H, Initial residual = 0.0004627002751, Final residual = 1.337966144e-08, No Iterations 1
DILUPBiCGStab:  Solving for C2H2, Initial residual = 0.0006248691874, Final residual = 5.538833989e-08, No Iterations 1
DILUPBiCGStab:  Solving for C2H3, Initial residual = 0.0003385904641, Final residual = 1.802303349e-08, No Iterations 1
DILUPBiCGStab:  Solving for C2H4, Initial residual = 0.0003873525671, Final residual = 3.85932061e-08, No Iterations 1
DILUPBiCGStab:  Solving for C2H5, Initial residual = 0.0003681674001, Final residual = 4.280037712e-08, No Iterations 1
DILUPBiCGStab:  Solving for C2H6, Initial residual = 0.0003858098565, Final residual = 7.607305586e-08, No Iterations 1
DILUPBiCGStab:  Solving for HCCO, Initial residual = 0.0003078363994, Final residual = 1.148604485e-08, No Iterations 1
DILUPBiCGStab:  Solving for CH2CO, Initial residual = 0.0005184594016, Final residual = 4.493310423e-08, No Iterations 1
DILUPBiCGStab:  Solving for HCCOH, Initial residual = 0.0003884399705, Final residual = 1.920883783e-08, No Iterations 1
DILUPBiCGStab:  Solving for AR, Initial residual = 0, Final residual = 0, No Iterations 0
DILUPBiCGStab:  Solving for C3H7, Initial residual = 0.0003202993465, Final residual = 2.902070401e-08, No Iterations 1
DILUPBiCGStab:  Solving for C3H8, Initial residual = 0.0003349914636, Final residual = 3.80895378e-08, No Iterations 1
DILUPBiCGStab:  Solving for CH2CHO, Initial residual = 0.0004796014573, Final residual = 4.064110949e-08, No Iterations 1
DILUPBiCGStab:  Solving for CH3CHO, Initial residual = 0.0003962882456, Final residual = 6.401868902e-08, No Iterations 1
DILUPBiCGStab:  Solving for h, Initial residual = 1.808888901e-05, Final residual = 4.940888079e-09, No Iterations 1
min/max(T) = 290.9998309, 1885.437456
DICPCG:  Solving for p, Initial residual = 0.00676281879, Final residual = 5.167078644e-06, No Iterations 2
diagonal:  Solving for rho, Initial residual = 0, Final residual = 0, No Iterations 0
time step continuity errors : sum local = 3.105194948e-09, global = 2.346640549e-09, cumulative = -8.249802239e-09
DICPCG:  Solving for p, Initial residual = 0.003914608326, Final residual = 2.629463892e-07, No Iterations 3
diagonal:  Solving for rho, Initial residual = 0, Final residual = 0, No Iterations 0
time step continuity errors : sum local = 1.638350929e-10, global = -4.902671827e-11, cumulative = -8.298828957e-09
DILUPBiCGStab:  Solving for epsilon, Initial residual = 2.506757704e-06, Final residual = 1.598238894e-10, No Iterations 1
DILUPBiCGStab:  Solving for k, Initial residual = 1.097049837e-06, Final residual = 9.187100906e-11, No Iterations 1
ExecutionTime = 0.552844 s  ClockTime = 1 s

Courant Number mean: 0.001140957054 max: 0.08104326713
deltaT = 7.430083707e-06
Time = 3.858050224e-05s

diagonal:  Solving for rho, Initial residual = 0, Final residual = 0, No Iterations 0
DILUPBiCGStab:  Solving for Ux, Initial residual = 0.003894461228, Final residual = 9.212661473e-07, No Iterations 1
DILUPBiCGStab:  Solving for Uy, Initial residual = 0.0001779696487, Final residual = 1.412368409e-08, No Iterations 1
DILUPBiCGStab:  Solving for Uz, Initial residual = 4.978846217e-06, Final residual = 1.197748622e-09, No Iterations 1
Max/Min Unbalanced chemistry integration time: 25504/24504
DILUPBiCGStab:  Solving for H2, Initial residual = 8.954533516e-05, Final residual = 1.668006387e-08, No Iterations 1
DILUPBiCGStab:  Solving for H, Initial residual = 6.203198973e-05, Final residual = 4.177338166e-09, No Iterations 1
DILUPBiCGStab:  Solving for O, Initial residual = 0.0003379647239, Final residual = 1.393430772e-07, No Iterations 1
DILUPBiCGStab:  Solving for O2, Initial residual = 3.126691226e-06, Final residual = 8.045879485e-10, No Iterations 1
DILUPBiCGStab:  Solving for OH, Initial residual = 0.001133870008, Final residual = 4.206604641e-07, No Iterations 1
DILUPBiCGStab:  Solving for H2O, Initial residual = 1.722681065e-05, Final residual = 5.528087063e-09, No Iterations 1
DILUPBiCGStab:  Solving for HO2, Initial residual = 0.004405093781, Final residual = 2.098658912e-06, No Iterations 1
DILUPBiCGStab:  Solving for H2O2, Initial residual = 0.00783227299, Final residual = 3.132253094e-06, No Iterations 1
DILUPBiCGStab:  Solving for C, Initial residual = 0.0008301701247, Final residual = 4.261117794e-08, No Iterations 1
DILUPBiCGStab:  Solving for CH, Initial residual = 0.000932998345, Final residual = 5.125379562e-08, No Iterations 1
DILUPBiCGStab:  Solving for CH2, Initial residual = 0.002644580843, Final residual = 6.229819845e-07, No Iterations 1
DILUPBiCGStab:  Solving for CH2(S), Initial residual = 0.002320235172, Final residual = 5.39071068e-07, No Iterations 1
DILUPBiCGStab:  Solving for CH3, Initial residual = 0.0007704168176, Final residual = 2.423459445e-07, No Iterations 1
DILUPBiCGStab:  Solving for CH4, Initial residual = 1.548012816e-06, Final residual = 3.663374379e-10, No Iterations 1
DILUPBiCGStab:  Solving for CO, Initial residual = 7.75908988e-05, Final residual = 1.983792942e-08, No Iterations 1
DILUPBiCGStab:  Solving for CO2, Initial residual = 2.339853799e-06, Final residual = 2.222194654e-10, No Iterations 1
DILUPBiCGStab:  Solving for HCO, Initial residual = 0.0009132881087, Final residual = 1.095114062e-07, No Iterations 1
DILUPBiCGStab:  Solving for CH2O, Initial residual = 0.001762234519, Final residual = 6.20087822e-07, No Iterations 1
DILUPBiCGStab:  Solving for CH2OH, Initial residual = 0.001338155341, Final residual = 2.65482105e-07, No Iterations 1
DILUPBiCGStab:  Solving for CH3O, Initial residual = 0.000883465682, Final residual = 3.505077536e-07, No Iterations 1
DILUPBiCGStab:  Solving for CH3OH, Initial residual = 0.002702664813, Final residual = 9.463287107e-07, No Iterations 1
DILUPBiCGStab:  Solving for C2H, Initial residual = 0.0007811723629, Final residual = 4.494884453e-08, No Iterations 1
DILUPBiCGStab:  Solving for C2H2, Initial residual = 0.0006840889412, Final residual = 9.166287473e-08, No Iterations 1
DILUPBiCGStab:  Solving for C2H3, Initial residual = 0.0003592277806, Final residual = 3.270140375e-08, No Iterations 1
DILUPBiCGStab:  Solving for C2H4, Initial residual = 0.0003621395291, Final residual = 5.275417899e-08, No Iterations 1
DILUPBiCGStab:  Solving for C2H5, Initial residual = 0.0003756114201, Final residual = 5.914100841e-08, No Iterations 1
DILUPBiCGStab:  Solving for C2H6, Initial residual = 0.0003413843121, Final residual = 8.985390934e-08, No Iterations 1
DILUPBiCGStab:  Solving for HCCO, Initial residual = 0.0006096281569, Final residual = 4.019586539e-08, No Iterations 1
DILUPBiCGStab:  Solving for CH2CO, Initial residual = 0.0005981307296, Final residual = 7.46146866e-08, No Iterations 1
DILUPBiCGStab:  Solving for HCCOH, Initial residual = 0.000704278372, Final residual = 5.660863067e-08, No Iterations 1
DILUPBiCGStab:  Solving for AR, Initial residual = 0, Final residual = 0, No Iterations 0
DILUPBiCGStab:  Solving for C3H7, Initial residual = 0.0002863771634, Final residual = 3.83022115e-08, No Iterations 1
DILUPBiCGStab:  Solving for C3H8, Initial residual = 0.000264547903, Final residual = 4.36528583e-08, No Iterations 1
DILUPBiCGStab:  Solving for CH2CHO, Initial residual = 0.0004820500311, Final residual = 6.018090034e-08, No Iterations 1
DILUPBiCGStab:  Solving for CH3CHO, Initial residual = 0.0003683948227, Final residual = 8.379047087e-08, No Iterations 1
DILUPBiCGStab:  Solving for h, Initial residual = 1.891371569e-05, Final residual = 6.171124747e-09, No Iterations 1
min/max(T) = 290.9998255, 1886.336664
DICPCG:  Solving for p, Initial residual = 0.007067599819, Final residual = 9.597101438e-06, No Iterations 2
diagonal:  Solving for rho, Initial residual = 0, Final residual = 0, No Iterations 0
time step continuity errors : sum local = 5.973869934e-09, global = 4.807949864e-09, cumulative = -3.490879092e-09
DICPCG:  Solving for p, Initial residual = 0.004160587645, Final residual = 5.502391044e-07, No Iterations 3
diagonal:  Solving for rho, Initial residual = 0, Final residual = 0, No Iterations 0
time step continuity errors : sum local = 3.492698173e-10, global = -7.40164478e-11, cumulative = -3.56489554e-09
DILUPBiCGStab:  Solving for epsilon, Initial residual = 3.133377434e-06, Final residual = 2.82954202e-10, No Iterations 1
DILUPBiCGStab:  Solving for k, Initial residual = 2.371033343e-06, Final residual = 2.617334371e-10, No Iterations 1
ExecutionTime = 0.593744 s  ClockTime = 1 s

Courant Number mean: 0.001370198961 max: 0.1104783666
deltaT = 8.916100448e-06
Time = 4.749660269e-05s

diagonal:  Solving for rho, Initial residual = 0, Final residual = 0, No Iterations 0
DILUPBiCGStab:  Solving for Ux, Initial residual = 0.004563310447, Final residual = 1.325409111e-06, No Iterations 1
DILUPBiCGStab:  Solving for Uy, Initial residual = 0.0002150362347, Final residual = 2.131449121e-08, No Iterations 1
DILUPBiCGStab:  Solving for Uz, Initial residual = 6.206321828e-06, Final residual = 1.911726668e-09, No Iterations 1
Max/Min Unbalanced chemistry integration time: 25816/24653
DILUPBiCGStab:  Solving for H2, Initial residual = 9.991900405e-05, Final residual = 2.193374583e-08, No Iterations 1
DILUPBiCGStab:  Solving for H, Initial residual = 6.60015346e-05, Final residual = 4.56537558e-09, No Iterations 1
DILUPBiCGStab:  Solving for O, Initial residual = 0.0003861861808, Final residual = 1.824386525e-07, No Iterations 1
DILUPBiCGStab:  Solving for O2, Initial residual = 3.041202439e-06, Final residual = 9.654750044e-10, No Iterations 1
DILUPBiCGStab:  Solving for OH, Initial residual = 0.001177942403, Final residual = 5.285452642e-07, No Iterations 1
DILUPBiCGStab:  Solving for H2O, Initial residual = 1.771287733e-05, Final residual = 6.856717137e-09, No Iterations 1
DILUPBiCGStab:  Solving for HO2, Initial residual = 0.004262583301, Final residual = 2.593192939e-06, No Iterations 1
DILUPBiCGStab:  Solving for H2O2, Initial residual = 0.007290942643, Final residual = 3.659373501e-06, No Iterations 1
DILUPBiCGStab:  Solving for C, Initial residual = 0.001058026123, Final residual = 9.320160754e-08, No Iterations 1
DILUPBiCGStab:  Solving for CH, Initial residual = 0.001125596409, Final residual = 1.009668801e-07, No Iterations 1
DILUPBiCGStab:  Solving for CH2, Initial residual = 0.003286221266, Final residual = 9.20729243e-07, No Iterations 1
DILUPBiCGStab:  Solving for CH2(S), Initial residual = 0.002859145172, Final residual = 8.052325553e-07, No Iterations 1
DILUPBiCGStab:  Solving for CH3, Initial residual = 0.0008292289097, Final residual = 3.221188358e-07, No Iterations 1
DILUPBiCGStab:  Solving for CH4, Initial residual = 1.753618414e-06, Final residual = 4.397086818e-10, No Iterations 1
DILUPBiCGStab:  Solving for CO, Initial residual = 8.545568508e-05, Final residual = 2.520710133e-08, No Iterations 1
DILUPBiCGStab:  Solving for CO2, Initial residual = 2.695546848e-06, Final residual = 3.405314986e-10, No Iterations 1
DILUPBiCGStab:  Solving for HCO, Initial residual = 0.0009573733537, Final residual = 1.770320441e-07, No Iterations 1
DILUPBiCGStab:  Solving for CH2O, Initial residual = 0.001787580852, Final residual = 7.518331816e-07, No Iterations 1
DILUPBiCGStab:  Solving for CH2OH, Initial residual = 0.001470309935, Final residual = 4.272466083e-07, No Iterations 1
DILUPBiCGStab:  Solving for CH3O, Initial residual = 0.0007402237318, Final residual = 3.867660265e-07, No Iterations 1
DILUPBiCGStab:  Solving for CH3OH, Initial residual = 0.002640282893, Final residual = 1.068676356e-06, No Iterations 1
DILUPBiCGStab:  Solving for C2H, Initial residual = 0.001006030297, Final residual = 9.884202695e-08, No Iterations 1
DILUPBiCGStab:  Solving for C2H2, Initial residual = 0.000700194102, Final residual = 1.445162999e-07, No Iterations 1
DILUPBiCGStab:  Solving for C2H3, Initial residual = 0.0003359218922, Final residual = 5.40922692e-08, No Iterations 1
DILUPBiCGStab:  Solving for C2H4, Initial residual = 0.0003433178868, Final residual = 7.266105762e-08, No Iterations 1
DILUPBiCGStab:  Solving for C2H5, Initial residual = 0.0003634548236, Final residual = 7.754545478e-08, No Iterations 1
DILUPBiCGStab:  Solving for C2H6, Initial residual = 0.0003061339206, Final residual = 1.065657692e-07, No Iterations 1
DILUPBiCGStab:  Solving for HCCO, Initial residual = 0.0008269412176, Final residual = 9.074896275e-08, No Iterations 1
DILUPBiCGStab:  Solving for CH2CO, Initial residual = 0.0006425693944, Final residual = 1.195075096e-07, No Iterations 1
DILUPBiCGStab:  Solving for HCCOH, Initial residual = 0.0009278583416, Final residual = 1.274815385e-07, No Iterations 1
DILUPBiCGStab:  Solving for AR, Initial residual = 0, Final residual = 0, No Iterations 0
DILUPBiCGStab:  Solving for C3H7, Initial residual = 0.0002462620398, Final residual = 4.834846083e-08, No Iterations 1
DILUPBiCGStab:  Solving for C3H8, Initial residual = 0.000213298676, Final residual = 5.074846897e-08, No Iterations 1
DILUPBiCGStab:  Solving for CH2CHO, Initial residual = 0.0004425314809, Final residual = 8.347251869e-08, No Iterations 1
DILUPBiCGStab:  Solving for CH3CHO, Initial residual = 0.0003421111464, Final residual = 1.06226236e-07, No Iterations 1
DILUPBiCGStab:  Solving for h, Initial residual = 1.965282384e-05, Final residual = 7.679495519e-09, No Iterations 1
min/max(T) = 290.9998227, 1887.307891
DICPCG:  Solving for p, Initial residual = 0.007596383043, Final residual = 1.810011977e-05, No Iterations 2
diagonal:  Solving for rho, Initial residual = 0, Final residual = 0, No Iterations 0
time step continuity errors : sum local = 1.147787315e-08, global = 9.45256724e-09, cumulative = 5.8876717e-09
DICPCG:  Solving for p, Initial residual = 0.00456890434, Final residual = 4.059399641e-07, No Iterations 4
diagonal:  Solving for rho, Initial residual = 0, Final residual = 0, No Iterations 0
time step continuity errors : sum local = 2.570769867e-10, global = -1.69096157e-10, cumulative = 5.718575543e-09
DILUPBiCGStab:  Solving for epsilon, Initial residual = 4.314111324e-06, Final residual = 5.697948836e-10, No Iterations 1
DILUPBiCGStab:  Solving for k, Initial residual = 2.845244563e-06, Final residual = 4.383742685e-10, No Iterations 1
ExecutionTime = 0.634967 s  ClockTime = 1 s

Courant Number mean: 0.001645640761 max: 0.1456067491
deltaT = 1.069932054e-05
Time = 5.819592323e-05s

diagonal:  Solving for rho, Initial residual = 0, Final residual = 0, No Iterations 0
DILUPBiCGStab:  Solving for Ux, Initial residual = 0.005198944319, Final residual = 1.852118643e-06, No Iterations 1
DILUPBiCGStab:  Solving for Uy, Initial residual = 0.0002547541306, Final residual = 2.90471674e-08, No Iterations 1
DILUPBiCGStab:  Solving for Uz, Initial residual = 7.712764456e-06, Final residual = 2.947630283e-09, No Iterations 1
Max/Min Unbalanced chemistry integration time: 25770/24565
DILUPBiCGStab:  Solving for H2, Initial residual = 0.00011024292, Final residual = 2.921715737e-08, No Iterations 1
DILUPBiCGStab:  Solving for H, Initial residual = 7.15812738e-05, Final residual = 5.058206411e-09, No Iterations 1
DILUPBiCGStab:  Solving for O, Initial residual = 0.0004428319728, Final residual = 2.374673621e-07, No Iterations 1
DILUPBiCGStab:  Solving for O2, Initial residual = 3.024952521e-06, Final residual = 1.175415491e-09, No Iterations 1
DILUPBiCGStab:  Solving for OH, Initial residual = 0.001211975188, Final residual = 6.611493828e-07, No Iterations 1
DILUPBiCGStab:  Solving for H2O, Initial residual = 1.82258276e-05, Final residual = 8.456241928e-09, No Iterations 1
DILUPBiCGStab:  Solving for HO2, Initial residual = 0.004025923645, Final residual = 3.107859797e-06, No Iterations 1
DILUPBiCGStab:  Solving for H2O2, Initial residual = 0.006759167298, Final residual = 4.276754675e-06, No Iterations 1
DILUPBiCGStab:  Solving for C, Initial residual = 0.001234157407, Final residual = 1.688271179e-07, No Iterations 1
DILUPBiCGStab:  Solving for CH, Initial residual = 0.001229183985, Final residual = 1.669466251e-07, No Iterations 1
DILUPBiCGStab:  Solving for CH2, Initial residual = 0.003996008322, Final residual = 1.386135271e-06, No Iterations 1
DILUPBiCGStab:  Solving for CH2(S), Initial residual = 0.00346094652, Final residual = 1.172497713e-06, No Iterations 1
DILUPBiCGStab:  Solving for CH3, Initial residual = 0.0009124877214, Final residual = 4.40389923e-07, No Iterations 1
DILUPBiCGStab:  Solving for CH4, Initial residual = 2.062661448e-06, Final residual = 6.427308787e-10, No Iterations 1
DILUPBiCGStab:  Solving for CO, Initial residual = 9.531921999e-05, Final residual = 3.028333443e-08, No Iterations 1
DILUPBiCGStab:  Solving for CO2, Initial residual = 3.148789968e-06, Final residual = 5.496052646e-10, No Iterations 1
DILUPBiCGStab:  Solving for HCO, Initial residual = 0.0009078025757, Final residual = 2.599292167e-07, No Iterations 1
DILUPBiCGStab:  Solving for CH2O, Initial residual = 0.001807294287, Final residual = 9.09955957e-07, No Iterations 1
DILUPBiCGStab:  Solving for CH2OH, Initial residual = 0.001549180028, Final residual = 6.439569904e-07, No Iterations 1
DILUPBiCGStab:  Solving for CH3O, Initial residual = 0.0006187756993, Final residual = 4.103663173e-07, No Iterations 1
DILUPBiCGStab:  Solving for CH3OH, Initial residual = 0.002569413007, Final residual = 1.219592396e-06, No Iterations 1
DILUPBiCGStab:  Solving for C2H, Initial residual = 0.001022784216, Final residual = 1.76245401e-07, No Iterations 1
DILUPBiCGStab:  Solving for C2H2, Initial residual = 0.0007090318423, Final residual = 2.196606765e-07, No Iterations 1
DILUPBiCGStab:  Solving for C2H3, Initial residual = 0.0003023417996, Final residual = 8.312722459e-08, No Iterations 1
DILUPBiCGStab:  Solving for C2H4, Initial residual = 0.000335648687, Final residual = 1.014737322e-07, No Iterations 1
DILUPBiCGStab:  Solving for C2H5, Initial residual = 0.0003405436065, Final residual = 1.004093961e-07, No Iterations 1
DILUPBiCGStab:  Solving for C2H6, Initial residual = 0.0002805654747, Final residual = 1.273047003e-07, No Iterations 1
DILUPBiCGStab:  Solving for HCCO, Initial residual = 0.000854590382, Final residual = 1.578283642e-07, No Iterations 1
DILUPBiCGStab:  Solving for CH2CO, Initial residual = 0.0006561191311, Final residual = 1.832086382e-07, No Iterations 1
DILUPBiCGStab:  Solving for HCCOH, Initial residual = 0.0009854491367, Final residual = 2.369760311e-07, No Iterations 1
DILUPBiCGStab:  Solving for AR, Initial residual = 0, Final residual = 0, No Iterations 0
DILUPBiCGStab:  Solving for C3H7, Initial residual = 0.0002069849543, Final residual = 5.881762467e-08, No Iterations 1
DILUPBiCGStab:  Solving for C3H8, Initial residual = 0.0001934205409, Final residual = 6.559301137e-08, No Iterations 1
DILUPBiCGStab:  Solving for CH2CHO, Initial residual = 0.0003753619572, Final residual = 1.101513311e-07, No Iterations 1
DILUPBiCGStab:  Solving for CH3CHO, Initial residual = 0.0003299650208, Final residual = 1.326620871e-07, No Iterations 1
DILUPBiCGStab:  Solving for h, Initial residual = 2.045197219e-05, Final residual = 9.518716638e-09, No Iterations 1
min/max(T) = 290.9998236, 1888.446305
DICPCG:  Solving for p, Initial residual = 0.008538734881, Final residual = 3.627993761e-05, No Iterations 2
diagonal:  Solving for rho, Initial residual = 0, Final residual = 0, No Iterations 0
time step continuity errors : sum local = 2.29558478e-08, global = 1.776458113e-08, cumulative = 2.348315667e-08
DICPCG:  Solving for p, Initial residual = 0.005259000903, Final residual = 1.637443652e-07, No Iterations 5
diagonal:  Solving for rho, Initial residual = 0, Final residual = 0, No Iterations 0
time step continuity errors : sum local = 1.011052989e-10, global = -7.16074074e-11, cumulative = 2.341154926e-08
DILUPBiCGStab:  Solving for epsilon, Initial residual = 5.595623746e-06, Final residual = 1.042926576e-09, No Iterations 1
DILUPBiCGStab:  Solving for k, Initial residual = 3.800668452e-06, Final residual = 7.814744404e-10, No Iterations 1
ExecutionTime = 0.676672 s  ClockTime = 1 s

Courant Number mean: 0.001976241857 max: 0.1778970738
deltaT = 1.283918465e-05
Time = 7.103510787e-05s

diagonal:  Solving for rho, Initial residual = 0, Final residual = 0, No Iterations 0
DILUPBiCGStab:  Solving for Ux, Initial residual = 0.005752875804, Final residual = 2.566948279e-06, No Iterations 1
DILUPBiCGStab:  Solving for Uy, Initial residual = 0.00030325811, Final residual = 4.294682791e-08, No Iterations 1
DILUPBiCGStab:  Solving for Uz, Initial residual = 9.556748295e-06, Final residual = 4.350906758e-09, No Iterations 1
Max/Min Unbalanced chemistry integration time: 25742/24623
DILUPBiCGStab:  Solving for H2, Initial residual = 0.0001212070639, Final residual = 3.869732069e-08, No Iterations 1
[...]
DILUPBiCGStab:  Solving for C2H3, Initial residual = 0.0001632181595, Final residual = 7.568515015e-07, No Iterations 1
DILUPBiCGStab:  Solving for C2H4, Initial residual = 4.312319166e-05, Final residual = 2.843920924e-07, No Iterations 1
DILUPBiCGStab:  Solving for C2H5, Initial residual = 0.0001274965104, Final residual = 5.494019379e-07, No Iterations 1
DILUPBiCGStab:  Solving for C2H6, Initial residual = 4.103450298e-05, Final residual = 2.623394801e-07, No Iterations 1
DILUPBiCGStab:  Solving for HCCO, Initial residual = 0.0001403758697, Final residual = 6.337517825e-07, No Iterations 1
DILUPBiCGStab:  Solving for CH2CO, Initial residual = 5.715155611e-05, Final residual = 3.596877377e-07, No Iterations 1
DILUPBiCGStab:  Solving for HCCOH, Initial residual = 4.177786464e-05, Final residual = 2.671609488e-07, No Iterations 1
DILUPBiCGStab:  Solving for AR, Initial residual = 0, Final residual = 0, No Iterations 0
DILUPBiCGStab:  Solving for C3H7, Initial residual = 0.0001438296134, Final residual = 6.192822006e-07, No Iterations 1
DILUPBiCGStab:  Solving for C3H8, Initial residual = 6.649837e-05, Final residual = 4.053533604e-07, No Iterations 1
DILUPBiCGStab:  Solving for CH2CHO, Initial residual = 0.0004882046347, Final residual = 1.613672731e-06, No Iterations 1
DILUPBiCGStab:  Solving for CH3CHO, Initial residual = 0.0001842929609, Final residual = 8.391750039e-07, No Iterations 1
DILUPBiCGStab:  Solving for h, Initial residual = 2.46459877e-05, Final residual = 1.028697933e-07, No Iterations 1
min/max(T) = 290.9984311, 1980.505574
DICPCG:  Solving for p, Initial residual = 0.008131059131, Final residual = 3.495882304e-05, No Iterations 6
diagonal:  Solving for rho, Initial residual = 0, Final residual = 0, No Iterations 0
time step continuity errors : sum local = 9.07482056e-09, global = 5.133061924e-10, cumulative = -5.294882154e-07
DICPCG:  Solving for p, Initial residual = 0.0048528048, Final residual = 5.407201263e-07, No Iterations 11
diagonal:  Solving for rho, Initial residual = 0, Final residual = 0, No Iterations 0
time step continuity errors : sum local = 1.410343979e-10, global = -9.728516821e-12, cumulative = -5.294979439e-07
DILUPBiCGStab:  Solving for epsilon, Initial residual = 2.180317102e-05, Final residual = 1.175962968e-07, No Iterations 1
DILUPBiCGStab:  Solving for k, Initial residual = 2.255507538e-05, Final residual = 1.230450445e-07, No Iterations 1
ExecutionTime = 27.293382 s  ClockTime = 28 s

Courant Number mean: 0.008624531222 max: 0.6001277785
deltaT = 4.359362569e-05
Time = 0.02491711226s

diagonal:  Solving for rho, Initial residual = 0, Final residual = 0, No Iterations 0
DILUPBiCGStab:  Solving for Ux, Initial residual = 0.001152562257, Final residual = 7.892370197e-07, No Iterations 1
DILUPBiCGStab:  Solving for Uy, Initial residual = 0.0005756008439, Final residual = 1.823155952e-07, No Iterations 1
DILUPBiCGStab:  Solving for Uz, Initial residual = 5.032804687e-05, Final residual = 3.551823491e-08, No Iterations 1
Max/Min Unbalanced chemistry integration time: 35221/25069
DILUPBiCGStab:  Solving for H2, Initial residual = 3.526471884e-05, Final residual = 2.333655608e-07, No Iterations 1
DILUPBiCGStab:  Solving for H, Initial residual = 7.591644767e-05, Final residual = 2.849983633e-07, No Iterations 1
DILUPBiCGStab:  Solving for O, Initial residual = 8.748288869e-05, Final residual = 2.729958561e-07, No Iterations 1
DILUPBiCGStab:  Solving for O2, Initial residual = 2.034593727e-05, Final residual = 8.834526307e-08, No Iterations 1
DILUPBiCGStab:  Solving for OH, Initial residual = 4.382301801e-05, Final residual = 1.459219253e-07, No Iterations 1
DILUPBiCGStab:  Solving for H2O, Initial residual = 2.530969976e-05, Final residual = 1.113036004e-07, No Iterations 1
DILUPBiCGStab:  Solving for HO2, Initial residual = 0.0002064795622, Final residual = 7.483495223e-07, No Iterations 1
DILUPBiCGStab:  Solving for H2O2, Initial residual = 5.82273758e-05, Final residual = 2.012261069e-07, No Iterations 1
DILUPBiCGStab:  Solving for C, Initial residual = 0.0001873393218, Final residual = 9.359683736e-07, No Iterations 1
DILUPBiCGStab:  Solving for CH, Initial residual = 0.0001542909293, Final residual = 7.481989728e-07, No Iterations 1
DILUPBiCGStab:  Solving for CH2, Initial residual = 9.49299708e-05, Final residual = 4.643773427e-07, No Iterations 1
DILUPBiCGStab:  Solving for CH2(S), Initial residual = 9.803220454e-05, Final residual = 4.65383411e-07, No Iterations 1
DILUPBiCGStab:  Solving for CH3, Initial residual = 7.412923103e-05, Final residual = 3.834542158e-07, No Iterations 1
DILUPBiCGStab:  Solving for CH4, Initial residual = 5.490802513e-06, Final residual = 2.442119801e-08, No Iterations 1
DILUPBiCGStab:  Solving for CO, Initial residual = 4.657428365e-05, Final residual = 2.528485889e-07, No Iterations 1
DILUPBiCGStab:  Solving for CO2, Initial residual = 2.37252128e-05, Final residual = 8.968524217e-08, No Iterations 1
DILUPBiCGStab:  Solving for HCO, Initial residual = 0.0002061217135, Final residual = 7.954896007e-07, No Iterations 1
DILUPBiCGStab:  Solving for CH2O, Initial residual = 7.463680378e-05, Final residual = 4.410598384e-07, No Iterations 1
DILUPBiCGStab:  Solving for CH2OH, Initial residual = 0.0001182443229, Final residual = 5.610455162e-07, No Iterations 1
DILUPBiCGStab:  Solving for CH3O, Initial residual = 0.000235268958, Final residual = 6.958869668e-07, No Iterations 1
DILUPBiCGStab:  Solving for CH3OH, Initial residual = 5.010459315e-05, Final residual = 2.561231344e-07, No Iterations 1
DILUPBiCGStab:  Solving for C2H, Initial residual = 5.791354433e-05, Final residual = 2.870319197e-07, No Iterations 1
DILUPBiCGStab:  Solving for C2H2, Initial residual = 3.835678098e-05, Final residual = 2.653419142e-07, No Iterations 1
DILUPBiCGStab:  Solving for C2H3, Initial residual = 0.0001125719936, Final residual = 6.659527369e-07, No Iterations 1
DILUPBiCGStab:  Solving for C2H4, Initial residual = 4.140758983e-05, Final residual = 2.796009075e-07, No Iterations 1
DILUPBiCGStab:  Solving for C2H5, Initial residual = 0.0001519992722, Final residual = 6.76978823e-07, No Iterations 1
DILUPBiCGStab:  Solving for C2H6, Initial residual = 4.255551531e-05, Final residual = 2.684218239e-07, No Iterations 1
DILUPBiCGStab:  Solving for HCCO, Initial residual = 0.0001323718096, Final residual = 7.166655958e-07, No Iterations 1
DILUPBiCGStab:  Solving for CH2CO, Initial residual = 4.383079444e-05, Final residual = 3.005838344e-07, No Iterations 1
DILUPBiCGStab:  Solving for HCCOH, Initial residual = 4.079992708e-05, Final residual = 2.739793196e-07, No Iterations 1
DILUPBiCGStab:  Solving for AR, Initial residual = 0, Final residual = 0, No Iterations 0
DILUPBiCGStab:  Solving for C3H7, Initial residual = 0.0001868962238, Final residual = 7.722498031e-07, No Iterations 1
DILUPBiCGStab:  Solving for C3H8, Initial residual = 7.002756126e-05, Final residual = 4.240035104e-07, No Iterations 1
DILUPBiCGStab:  Solving for CH2CHO, Initial residual = 0.0004802453859, Final residual = 1.488185319e-06, No Iterations 1
DILUPBiCGStab:  Solving for CH3CHO, Initial residual = 0.0001410794465, Final residual = 6.283962856e-07, No Iterations 1
DILUPBiCGStab:  Solving for h, Initial residual = 2.481617328e-05, Final residual = 1.044189629e-07, No Iterations 1
min/max(T) = 290.9984743, 1980.685688
DICPCG:  Solving for p, Initial residual = 0.007863067173, Final residual = 3.99940916e-05, No Iterations 6
diagonal:  Solving for rho, Initial residual = 0, Final residual = 0, No Iterations 0
time step continuity errors : sum local = 1.043085052e-08, global = 9.279941329e-10, cumulative = -5.285699498e-07
DICPCG:  Solving for p, Initial residual = 0.004694354479, Final residual = 7.268356074e-07, No Iterations 11
diagonal:  Solving for rho, Initial residual = 0, Final residual = 0, No Iterations 0
time step continuity errors : sum local = 1.90406914e-10, global = -2.354569779e-11, cumulative = -5.285934955e-07
DILUPBiCGStab:  Solving for epsilon, Initial residual = 2.188092681e-05, Final residual = 1.190503706e-07, No Iterations 1
DILUPBiCGStab:  Solving for k, Initial residual = 2.25841533e-05, Final residual = 1.242574494e-07, No Iterations 1
ExecutionTime = 27.344805 s  ClockTime = 28 s

Courant Number mean: 0.008623263961 max: 0.5995471966
deltaT = 4.362654944e-05
Time = 0.02496073881s

diagonal:  Solving for rho, Initial residual = 0, Final residual = 0, No Iterations 0
DILUPBiCGStab:  Solving for Ux, Initial residual = 0.001157928943, Final residual = 8.637145374e-07, No Iterations 1
DILUPBiCGStab:  Solving for Uy, Initial residual = 0.0005737514261, Final residual = 1.827525539e-07, No Iterations 1
DILUPBiCGStab:  Solving for Uz, Initial residual = 5.070859863e-05, Final residual = 3.8365279e-08, No Iterations 1
Max/Min Unbalanced chemistry integration time: 35477/24628
DILUPBiCGStab:  Solving for H2, Initial residual = 3.612426133e-05, Final residual = 2.37429068e-07, No Iterations 1
DILUPBiCGStab:  Solving for H, Initial residual = 5.604771848e-05, Final residual = 2.004364002e-07, No Iterations 1
DILUPBiCGStab:  Solving for O, Initial residual = 7.034709138e-05, Final residual = 1.793827497e-07, No Iterations 1
DILUPBiCGStab:  Solving for O2, Initial residual = 2.062380012e-05, Final residual = 9.00212632e-08, No Iterations 1
DILUPBiCGStab:  Solving for OH, Initial residual = 3.610024725e-05, Final residual = 1.053280211e-07, No Iterations 1
DILUPBiCGStab:  Solving for H2O, Initial residual = 2.591314932e-05, Final residual = 1.149419032e-07, No Iterations 1
DILUPBiCGStab:  Solving for HO2, Initial residual = 0.0002157897336, Final residual = 8.049374489e-07, No Iterations 1
DILUPBiCGStab:  Solving for H2O2, Initial residual = 5.860041055e-05, Final residual = 2.051410662e-07, No Iterations 1
DILUPBiCGStab:  Solving for C, Initial residual = 0.000171932319, Final residual = 7.873344247e-07, No Iterations 1
DILUPBiCGStab:  Solving for CH, Initial residual = 0.0002092978103, Final residual = 1.095077737e-06, No Iterations 1
DILUPBiCGStab:  Solving for CH2, Initial residual = 0.0001644737275, Final residual = 9.257607868e-07, No Iterations 1
DILUPBiCGStab:  Solving for CH2(S), Initial residual = 0.0001991888503, Final residual = 1.076612462e-06, No Iterations 1
DILUPBiCGStab:  Solving for CH3, Initial residual = 7.572582996e-05, Final residual = 4.019155433e-07, No Iterations 1
DILUPBiCGStab:  Solving for CH4, Initial residual = 5.600313195e-06, Final residual = 2.474477012e-08, No Iterations 1
DILUPBiCGStab:  Solving for CO, Initial residual = 4.547401171e-05, Final residual = 2.558279573e-07, No Iterations 1
DILUPBiCGStab:  Solving for CO2, Initial residual = 2.340987036e-05, Final residual = 8.899284874e-08, No Iterations 1
DILUPBiCGStab:  Solving for HCO, Initial residual = 0.0004242047825, Final residual = 1.785488139e-06, No Iterations 1
DILUPBiCGStab:  Solving for CH2O, Initial residual = 7.640933999e-05, Final residual = 4.383197208e-07, No Iterations 1
DILUPBiCGStab:  Solving for CH2OH, Initial residual = 0.0002367458794, Final residual = 1.252655127e-06, No Iterations 1
DILUPBiCGStab:  Solving for CH3O, Initial residual = 0.0003110309379, Final residual = 9.327719172e-07, No Iterations 1
DILUPBiCGStab:  Solving for CH3OH, Initial residual = 5.237215325e-05, Final residual = 2.625546445e-07, No Iterations 1
DILUPBiCGStab:  Solving for C2H, Initial residual = 8.15452142e-05, Final residual = 4.70707293e-07, No Iterations 1
DILUPBiCGStab:  Solving for C2H2, Initial residual = 4.063447674e-05, Final residual = 2.812903592e-07, No Iterations 1
DILUPBiCGStab:  Solving for C2H3, Initial residual = 0.000164347617, Final residual = 1.028109135e-06, No Iterations 1
DILUPBiCGStab:  Solving for C2H4, Initial residual = 4.530761456e-05, Final residual = 3.027481515e-07, No Iterations 1
DILUPBiCGStab:  Solving for C2H5, Initial residual = 0.0002092586981, Final residual = 9.470352413e-07, No Iterations 1
DILUPBiCGStab:  Solving for C2H6, Initial residual = 4.508282302e-05, Final residual = 2.865223338e-07, No Iterations 1
DILUPBiCGStab:  Solving for HCCO, Initial residual = 0.0001587619805, Final residual = 9.556361957e-07, No Iterations 1
DILUPBiCGStab:  Solving for CH2CO, Initial residual = 4.716120553e-05, Final residual = 3.091089834e-07, No Iterations 1
DILUPBiCGStab:  Solving for HCCOH, Initial residual = 4.478040471e-05, Final residual = 2.95752739e-07, No Iterations 1
DILUPBiCGStab:  Solving for AR, Initial residual = 0, Final residual = 0, No Iterations 0
DILUPBiCGStab:  Solving for C3H7, Initial residual = 0.0002538099605, Final residual = 1.071403236e-06, No Iterations 1
DILUPBiCGStab:  Solving for C3H8, Initial residual = 7.49449053e-05, Final residual = 4.610464738e-07, No Iterations 1
DILUPBiCGStab:  Solving for CH2CHO, Initial residual = 0.000526788289, Final residual = 1.693738908e-06, No Iterations 1
DILUPBiCGStab:  Solving for CH3CHO, Initial residual = 0.0001696427763, Final residual = 8.370885731e-07, No Iterations 1
DILUPBiCGStab:  Solving for h, Initial residual = 2.523599736e-05, Final residual = 1.068929493e-07, No Iterations 1
min/max(T) = 290.9985138, 1980.853576
DICPCG:  Solving for p, Initial residual = 0.007998656479, Final residual = 4.423255403e-05, No Iterations 6
diagonal:  Solving for rho, Initial residual = 0, Final residual = 0, No Iterations 0
time step continuity errors : sum local = 1.158699323e-08, global = 9.78200875e-10, cumulative = -5.276152946e-07
DICPCG:  Solving for p, Initial residual = 0.004764341123, Final residual = 7.021719889e-07, No Iterations 13
diagonal:  Solving for rho, Initial residual = 0, Final residual = 0, No Iterations 0
time step continuity errors : sum local = 1.852154712e-10, global = -1.182454491e-11, cumulative = -5.276271191e-07
DILUPBiCGStab:  Solving for epsilon, Initial residual = 2.197450249e-05, Final residual = 1.197695424e-07, No Iterations 1
DILUPBiCGStab:  Solving for k, Initial residual = 2.268454632e-05, Final residual = 1.24763395e-07, No Iterations 1
ExecutionTime = 27.39703 s  ClockTime = 28 s

Courant Number mean: 0.008630064856 max: 0.6004950622
deltaT = 4.359058269e-05
Time = 0.02500432939s

diagonal:  Solving for rho, Initial residual = 0, Final residual = 0, No Iterations 0
DILUPBiCGStab:  Solving for Ux, Initial residual = 0.00118041336, Final residual = 9.675093272e-07, No Iterations 1
DILUPBiCGStab:  Solving for Uy, Initial residual = 0.0005798989883, Final residual = 1.748441855e-07, No Iterations 1
DILUPBiCGStab:  Solving for Uz, Initial residual = 5.123129876e-05, Final residual = 4.095990243e-08, No Iterations 1
Max/Min Unbalanced chemistry integration time: 35028/24608
DILUPBiCGStab:  Solving for H2, Initial residual = 3.822240954e-05, Final residual = 2.376828509e-07, No Iterations 1
DILUPBiCGStab:  Solving for H, Initial residual = 8.658958052e-05, Final residual = 3.369970851e-07, No Iterations 1
DILUPBiCGStab:  Solving for O, Initial residual = 0.0001058956251, Final residual = 2.624512828e-07, No Iterations 1
DILUPBiCGStab:  Solving for O2, Initial residual = 2.126531642e-05, Final residual = 9.291173523e-08, No Iterations 1
DILUPBiCGStab:  Solving for OH, Initial residual = 4.717167007e-05, Final residual = 1.482164922e-07, No Iterations 1
DILUPBiCGStab:  Solving for H2O, Initial residual = 2.677715921e-05, Final residual = 1.188774389e-07, No Iterations 1
DILUPBiCGStab:  Solving for HO2, Initial residual = 0.0002527545675, Final residual = 9.071995426e-07, No Iterations 1
DILUPBiCGStab:  Solving for H2O2, Initial residual = 5.760709174e-05, Final residual = 2.115472455e-07, No Iterations 1
DILUPBiCGStab:  Solving for C, Initial residual = 0.0003423230566, Final residual = 2.051484916e-06, No Iterations 1
DILUPBiCGStab:  Solving for CH, Initial residual = 0.0005948137163, Final residual = 3.901909057e-06, No Iterations 1
DILUPBiCGStab:  Solving for CH2, Initial residual = 0.0002364453771, Final residual = 1.514438076e-06, No Iterations 1
DILUPBiCGStab:  Solving for CH2(S), Initial residual = 0.0003006503736, Final residual = 1.950603297e-06, No Iterations 1
DILUPBiCGStab:  Solving for CH3, Initial residual = 9.456012608e-05, Final residual = 4.169307606e-07, No Iterations 1
DILUPBiCGStab:  Solving for CH4, Initial residual = 5.707605967e-06, Final residual = 2.524131846e-08, No Iterations 1
DILUPBiCGStab:  Solving for CO, Initial residual = 4.627406987e-05, Final residual = 2.660082782e-07, No Iterations 1
DILUPBiCGStab:  Solving for CO2, Initial residual = 2.375612519e-05, Final residual = 9.001943792e-08, No Iterations 1
DILUPBiCGStab:  Solving for HCO, Initial residual = 0.0003551538398, Final residual = 2.052226571e-06, No Iterations 1
DILUPBiCGStab:  Solving for CH2O, Initial residual = 8.241543907e-05, Final residual = 4.735658624e-07, No Iterations 1
DILUPBiCGStab:  Solving for CH2OH, Initial residual = 0.000276008651, Final residual = 1.759752548e-06, No Iterations 1
DILUPBiCGStab:  Solving for CH3O, Initial residual = 0.0003871012294, Final residual = 1.043515228e-06, No Iterations 1
DILUPBiCGStab:  Solving for CH3OH, Initial residual = 5.585612387e-05, Final residual = 2.818493182e-07, No Iterations 1
DILUPBiCGStab:  Solving for C2H, Initial residual = 0.0001895495002, Final residual = 1.240948096e-06, No Iterations 1
DILUPBiCGStab:  Solving for C2H2, Initial residual = 3.592671528e-05, Final residual = 2.472771776e-07, No Iterations 1
DILUPBiCGStab:  Solving for C2H3, Initial residual = 9.453839847e-05, Final residual = 5.796626418e-07, No Iterations 1
DILUPBiCGStab:  Solving for C2H4, Initial residual = 5.0541819e-05, Final residual = 3.387591104e-07, No Iterations 1
DILUPBiCGStab:  Solving for C2H5, Initial residual = 0.0002531527916, Final residual = 1.245420718e-06, No Iterations 1
DILUPBiCGStab:  Solving for C2H6, Initial residual = 4.370456703e-05, Final residual = 2.764024878e-07, No Iterations 1
DILUPBiCGStab:  Solving for HCCO, Initial residual = 0.0001961834834, Final residual = 1.177693425e-06, No Iterations 1
DILUPBiCGStab:  Solving for CH2CO, Initial residual = 6.180208243e-05, Final residual = 4.019793058e-07, No Iterations 1
DILUPBiCGStab:  Solving for HCCOH, Initial residual = 4.200191332e-05, Final residual = 2.804326335e-07, No Iterations 1
DILUPBiCGStab:  Solving for AR, Initial residual = 0, Final residual = 0, No Iterations 0
DILUPBiCGStab:  Solving for C3H7, Initial residual = 0.0003080828865, Final residual = 1.282163018e-06, No Iterations 1
DILUPBiCGStab:  Solving for C3H8, Initial residual = 7.253900129e-05, Final residual = 4.528646213e-07, No Iterations 1
DILUPBiCGStab:  Solving for CH2CHO, Initial residual = 0.0006450201291, Final residual = 1.931841429e-06, No Iterations 1
DILUPBiCGStab:  Solving for CH3CHO, Initial residual = 0.0002543639963, Final residual = 1.242948373e-06, No Iterations 1
DILUPBiCGStab:  Solving for h, Initial residual = 2.586680054e-05, Final residual = 1.097920203e-07, No Iterations 1
min/max(T) = 290.9985607, 1981.026701
DICPCG:  Solving for p, Initial residual = 0.007983121786, Final residual = 4.736964036e-05, No Iterations 6
diagonal:  Solving for rho, Initial residual = 0, Final residual = 0, No Iterations 0
time step continuity errors : sum local = 1.249364625e-08, global = 1.095897559e-09, cumulative = -5.265312216e-07
DICPCG:  Solving for p, Initial residual = 0.004750112553, Final residual = 7.36443214e-07, No Iterations 13
diagonal:  Solving for rho, Initial residual = 0, Final residual = 0, No Iterations 0
time step continuity errors : sum local = 1.95881354e-10, global = -2.378674155e-11, cumulative = -5.265550083e-07
DILUPBiCGStab:  Solving for epsilon, Initial residual = 2.211169444e-05, Final residual = 1.205323374e-07, No Iterations 1
DILUPBiCGStab:  Solving for k, Initial residual = 2.279143733e-05, Final residual = 1.248197772e-07, No Iterations 1
ExecutionTime = 27.521662 s  ClockTime = 28 s

End

Finalising parallel run
