/*---------------------------------------------------------------------------*\
  =========                 |
  \\      /  F ield         | OpenFOAM: The Open Source CFD Toolbox
   \\    /   O peration     | Website:  https://openfoam.org
    \\  /    A nd           | Version:  10
     \\/     M anipulation  |
\*---------------------------------------------------------------------------*/
Build  : 10-fbdaf03a874a
Exec   : reactingFoam -parallel -fileHandler collated
Date   : Nov 05 2025
Time   : 17:42:56
Host   : "zhouyuchen-virtual-machine"
PID    : 64228
I/O    : collated (maxThreadFileBufferSize 2e+09)
         Threading activated since maxThreadFileBufferSize > 0.
         Requires large enough buffer to collect all data or thread support 
         enabled in MPI. If thread support cannot be enabled, deactivate
         threading by setting maxThreadFileBufferSize to 0 in
         $FOAM_ETC/controlDict
Case   : /home/zhouyuchen/Desktop/FastChemistrySolver-OpenFOAM-10/EC-CCM/OpenFOAM-10/Sandia
nProcs : 6
Slaves : 
5
(
"zhouyuchen-virtual-machine.64229"
"zhouyuchen-virtual-machine.64230"
"zhouyuchen-virtual-machine.64231"
"zhouyuchen-virtual-machine.64232"
"zhouyuchen-virtual-machine.64233"
)

Pstream initialised with:
    floatTransfer      : 0
    nProcsSimpleSum    : 0
    commsType          : nonBlocking
    polling iterations : 0
sigFpe : Enabling floating point exception trapping (FOAM_SIGFPE).
fileModificationChecking : Monitoring run-time modified files using timeStamp (fileModificationSkew 10)
allowSystemOperations : Allowing user-supplied system call operations

// * * * * * * * * * * * * * * * * * * * * * * * * * * * * * * * * * * * * * //
Create time

Create mesh for time = 0


PIMPLE: No convergence criteria found


PIMPLE: Operating solver in transient mode with 1 outer corrector
PIMPLE: Operating solver in PISO mode


Reading thermophysical properties

Selecting thermodynamics package 
{
    type            hePsiThermo;
    mixture         multiComponentMixture;
    transport       sutherland;
    thermo          janaf;
    energy          sensibleEnthalpy;
    equationOfState perfectGas;
    specie          specie;
}

Reading field U

Reading/calculating face flux field phi

Creating turbulence model.

Selecting turbulence model type RAS
Selecting RAS turbulence model kEpsilon
RAS
{
    RASModel        kEpsilon;
    turbulence      on;
    printCoeffs     on;
    Cmu             0.09;
    C1              1.44;
    C2              1.92;
    C3              0;
    sigmak          1;
    sigmaEps        1.3;
}

Creating thermophysical transport model

Selecting thermophysical transport type RAS
Selecting default RAS thermophysical transport model unityLewisEddyDiffusivity
Creating reaction model

Selecting combustion model laminar
Selecting chemistry solver 
{
    solver          ode;
    method          CCM;
}

CCModeChemistryModel: Number of species = 36
No chemistry tabulation method selected
Selecting chemistry solver 
{
    solver          OptSeulex;
    method          FastChemistryModel;
}

The default specie is N2
FastChemistryModel: Number of species = 36 and reactions = 219
Using correct scalar dissipation rate
Using the equivalence ratio that will change during the combustion process
Using optimized targeted communication pattern
Using OpenFOAM-based ODE solver routines
Principal variables: T CH3OH HO2 H2O2 CH4 CH2OH C CH2 HCO HCCO OH O CH3O 
Regular variables: 
Variables to be update: 
#====== CCM Information ======#

Principal variables: T CH3OH HO2 H2O2 CH4 CH2OH C CH2 HCO HCCO OH O CH3O 
Regular variables: 
Variables to be update: 
nSlice: 50
ignoreMin: 1e-06
Error control variables(ecVars_): T 

CCM Variable Analysis:
====================================
       Variable   Min Value   Max Value
              T  2.9100e+02  1.8800e+03
          CH3OH  0.0000e+00  0.0000e+00
            HO2  0.0000e+00  0.0000e+00
           H2O2  0.0000e+00  0.0000e+00
            CH4  1.5875e-44  1.5610e-01
          CH2OH  0.0000e+00  0.0000e+00
              C  0.0000e+00  0.0000e+00
            CH2  0.0000e+00  0.0000e+00
            HCO  0.0000e+00  0.0000e+00
           HCCO  0.0000e+00  0.0000e+00
             OH  2.8113e-60  2.8000e-03
              O  7.5002e-61  7.4700e-04
           CH3O  0.0000e+00  0.0000e+00
#====== CCM Information ======#
CCMchemistryModel: Number of species = 36 and reactions = 219
Global communicator
Hash tables pre-allocated with capacity: 1024 (contact cores: 6, local RR: 2048)
Selecting ODE solver seulex
    using integrated reaction rate
Creating field dpdt

Creating field kinetic energy K

No MRF models present

No fvModels present
No fvConstraints present
Courant Number mean: 1.8406e-04 max: 1.2868e-02

Starting time loop

Courant Number mean: 1.8406e-04 max: 1.2868e-02
deltaT = 1.2000e-06
Time = 1.2e-06s

diagonal:  Solving for rho, Initial residual = 0.0000e+00, Final residual = 0.0000e+00, No Iterations 0
DILUPBiCGStab:  Solving for Ux, Initial residual = 9.8211e-07, Final residual = 9.8211e-07, No Iterations 0
DILUPBiCGStab:  Solving for Uy, Initial residual = 3.9067e-05, Final residual = 1.0126e-09, No Iterations 1
DILUPBiCGStab:  Solving for Uz, Initial residual = 2.4500e-08, Final residual = 2.4500e-08, No Iterations 0

CCM status
====================================
  acceleration ratio    phase space size     Unbalance ratio
               26.93                 192                0.21
====================================

CCM Solve Function Timing Analysis:
====================================
                     Step     Time(s)   Percent      Max(s)      Min(s)
           Initialization    0.000190     0.37%    0.000222    0.000156
            Cell_Grouping    0.002370     4.98%    0.002370    0.002369
             Distribution    0.000307     0.64%    0.000307    0.000306
                  Merging    0.000026     0.05%    0.000026    0.000026
         Post_merge_Total    0.000002     0.00%    0.000002    0.000002
        Reduce_PhaseSpace    0.000011     0.02%    0.000012    0.000011
    Reduce_UnbalanceRatio    0.000003     0.01%    0.000003    0.000003
        Reduce_TotalCells    0.000003     0.01%    0.000003    0.000003
         Debug_Operations    0.000003     0.01%    0.000004    0.000003
    Chemistry_Computation    0.043368    92.80%    0.044319    0.041715
               Comm_Setup    0.000006     0.01%    0.000007    0.000003
  Hash_Table_Construction    0.000032     0.07%    0.000032    0.000032
  Communication_Execution    0.000298     0.63%    0.000299    0.000297
          Rate_Assignment    0.000181     0.38%    0.000183    0.000180
       Cleanup_Statistics    0.000004     0.01%    0.000004    0.000003
====================================
                    Total    0.047630  100.00%

DILUPBiCGStab:  Solving for H2, Initial residual = 0.000045, Final residual = 0.000000, No Iterations 1
DILUPBiCGStab:  Solving for H, Initial residual = 0.013799, Final residual = 0.000002, No Iterations 1
DILUPBiCGStab:  Solving for O, Initial residual = 0.000206, Final residual = 0.000000, No Iterations 1
DILUPBiCGStab:  Solving for O2, Initial residual = 0.000041, Final residual = 0.000000, No Iterations 1
DILUPBiCGStab:  Solving for OH, Initial residual = 0.000631, Final residual = 0.000000, No Iterations 1
DILUPBiCGStab:  Solving for H2O, Initial residual = 0.000013, Final residual = 0.000000, No Iterations 1
DILUPBiCGStab:  Solving for HO2, Initial residual = 1.000000, Final residual = 0.000143, No Iterations 1
DILUPBiCGStab:  Solving for H2O2, Initial residual = 1.000000, Final residual = 0.000126, No Iterations 1
DILUPBiCGStab:  Solving for C, Initial residual = 1.000000, Final residual = 0.000006, No Iterations 1
DILUPBiCGStab:  Solving for CH, Initial residual = 1.000000, Final residual = 0.000008, No Iterations 1
DILUPBiCGStab:  Solving for CH2, Initial residual = 1.000000, Final residual = 0.000039, No Iterations 1
DILUPBiCGStab:  Solving for CH2(S), Initial residual = 1.000000, Final residual = 0.000035, No Iterations 1
DILUPBiCGStab:  Solving for CH3, Initial residual = 1.000000, Final residual = 0.000055, No Iterations 1
DILUPBiCGStab:  Solving for CH4, Initial residual = 0.000002, Final residual = 0.000000, No Iterations 1
DILUPBiCGStab:  Solving for CO, Initial residual = 0.000026, Final residual = 0.000000, No Iterations 1
DILUPBiCGStab:  Solving for CO2, Initial residual = 0.000001, Final residual = 0.000000, No Iterations 1
DILUPBiCGStab:  Solving for HCO, Initial residual = 1.000000, Final residual = 0.000013, No Iterations 1
DILUPBiCGStab:  Solving for CH2O, Initial residual = 1.000000, Final residual = 0.000038, No Iterations 1
DILUPBiCGStab:  Solving for CH2OH, Initial residual = 1.000000, Final residual = 0.000015, No Iterations 1
DILUPBiCGStab:  Solving for CH3O, Initial residual = 1.000000, Final residual = 0.000060, No Iterations 1
DILUPBiCGStab:  Solving for CH3OH, Initial residual = 1.000000, Final residual = 0.000068, No Iterations 1
DILUPBiCGStab:  Solving for C2H, Initial residual = 1.000000, Final residual = 0.000010, No Iterations 1
DILUPBiCGStab:  Solving for C2H2, Initial residual = 1.000000, Final residual = 0.000011, No Iterations 1
DILUPBiCGStab:  Solving for C2H3, Initial residual = 1.000000, Final residual = 0.000011, No Iterations 1
DILUPBiCGStab:  Solving for C2H4, Initial residual = 1.000000, Final residual = 0.000018, No Iterations 1
DILUPBiCGStab:  Solving for C2H5, Initial residual = 1.000000, Final residual = 0.000016, No Iterations 1
DILUPBiCGStab:  Solving for C2H6, Initial residual = 1.000000, Final residual = 0.000025, No Iterations 1
DILUPBiCGStab:  Solving for HCCO, Initial residual = 1.000000, Final residual = 0.000010, No Iterations 1
DILUPBiCGStab:  Solving for CH2CO, Initial residual = 1.000000, Final residual = 0.000015, No Iterations 1
DILUPBiCGStab:  Solving for HCCOH, Initial residual = 1.000000, Final residual = 0.000010, No Iterations 1
DILUPBiCGStab:  Solving for AR, Initial residual = 0.000000, Final residual = 0.000000, No Iterations 0
DILUPBiCGStab:  Solving for C3H7, Initial residual = 1.000000, Final residual = 0.000016, No Iterations 1
DILUPBiCGStab:  Solving for C3H8, Initial residual = 1.000000, Final residual = 0.000018, No Iterations 1
DILUPBiCGStab:  Solving for CH2CHO, Initial residual = 1.000000, Final residual = 0.000016, No Iterations 1
DILUPBiCGStab:  Solving for CH3CHO, Initial residual = 1.000000, Final residual = 0.000015, No Iterations 1
DILUPBiCGStab:  Solving for h, Initial residual = 0.000044, Final residual = 0.000000, No Iterations 1
min/max(T) = 291.000000, 1880.231797
DICPCG:  Solving for p, Initial residual = 0.094762, Final residual = 0.000199, No Iterations 1
diagonal:  Solving for rho, Initial residual = 0.000000, Final residual = 0.000000, No Iterations 0
time step continuity errors : sum local = 0.000000, global = -0.000000, cumulative = -0.000000
DICPCG:  Solving for p, Initial residual = 0.032262, Final residual = 0.000000, No Iterations 3
diagonal:  Solving for rho, Initial residual = 0.000000, Final residual = 0.000000, No Iterations 0
time step continuity errors : sum local = 0.000000, global = -0.000000, cumulative = -0.000000
DILUPBiCGStab:  Solving for epsilon, Initial residual = 0.000000, Final residual = 0.000000, No Iterations 0
DILUPBiCGStab:  Solving for k, Initial residual = 0.000000, Final residual = 0.000000, No Iterations 0
ExecutionTime = 0.160198 s  ClockTime = 0 s

Courant Number mean: 0.000221 max: 0.014557
deltaT = 0.000001
Time = 2.64e-06s

diagonal:  Solving for rho, Initial residual = 0.000000, Final residual = 0.000000, No Iterations 0
DILUPBiCGStab:  Solving for Ux, Initial residual = 0.000195, Final residual = 0.000000, No Iterations 1
DILUPBiCGStab:  Solving for Uy, Initial residual = 0.000038, Final residual = 0.000000, No Iterations 1
DILUPBiCGStab:  Solving for Uz, Initial residual = 0.000000, Final residual = 0.000000, No Iterations 0

CCM status
====================================
  acceleration ratio    phase space size     Unbalance ratio
               19.36                 267                0.13
====================================

CCM Solve Function Timing Analysis:
====================================
                     Step     Time(s)   Percent      Max(s)      Min(s)
           Initialization    0.000130     0.58%    0.000130    0.000129
            Cell_Grouping    0.002993    13.36%    0.002998    0.002987
             Distribution    0.000252     1.12%    0.000253    0.000252
                  Merging    0.000026     0.12%    0.000026    0.000026
         Post_merge_Total    0.000002     0.01%    0.000003    0.000001
        Reduce_PhaseSpace    0.000004     0.02%    0.000004    0.000004
    Reduce_UnbalanceRatio    0.000003     0.01%    0.000004    0.000003
        Reduce_TotalCells    0.000003     0.01%    0.000003    0.000002
         Debug_Operations    0.000008     0.05%    0.000011    0.000006
    Chemistry_Computation    0.018709    83.13%    0.018751    0.018658
               Comm_Setup    0.000003     0.01%    0.000003    0.000003
  Hash_Table_Construction    0.000026     0.12%    0.000027    0.000026
  Communication_Execution    0.000176     0.78%    0.000176    0.000175
          Rate_Assignment    0.000147     0.66%    0.000148    0.000147
       Cleanup_Statistics    0.000003     0.02%    0.000004    0.000003
====================================
                    Total    0.022444  100.00%

DILUPBiCGStab:  Solving for H2, Initial residual = 0.000047, Final residual = 0.000000, No Iterations 1
DILUPBiCGStab:  Solving for H, Initial residual = 0.009101, Final residual = 0.000001, No Iterations 1
DILUPBiCGStab:  Solving for O, Initial residual = 0.000179, Final residual = 0.000000, No Iterations 1
DILUPBiCGStab:  Solving for O2, Initial residual = 0.000025, Final residual = 0.000000, No Iterations 1
DILUPBiCGStab:  Solving for OH, Initial residual = 0.000626, Final residual = 0.000000, No Iterations 1
DILUPBiCGStab:  Solving for H2O, Initial residual = 0.000012, Final residual = 0.000000, No Iterations 1
DILUPBiCGStab:  Solving for HO2, Initial residual = 0.042165, Final residual = 0.000003, No Iterations 1
DILUPBiCGStab:  Solving for H2O2, Initial residual = 0.035690, Final residual = 0.000003, No Iterations 1
DILUPBiCGStab:  Solving for C, Initial residual = 0.001268, Final residual = 0.000000, No Iterations 1
DILUPBiCGStab:  Solving for CH, Initial residual = 0.001209, Final residual = 0.000000, No Iterations 1
DILUPBiCGStab:  Solving for CH2, Initial residual = 0.002125, Final residual = 0.000000, No Iterations 1
DILUPBiCGStab:  Solving for CH2(S), Initial residual = 0.001905, Final residual = 0.000000, No Iterations 1
DILUPBiCGStab:  Solving for CH3, Initial residual = 0.004044, Final residual = 0.000000, No Iterations 1
DILUPBiCGStab:  Solving for CH4, Initial residual = 0.000001, Final residual = 0.000000, No Iterations 1
DILUPBiCGStab:  Solving for CO, Initial residual = 0.000029, Final residual = 0.000000, No Iterations 1
DILUPBiCGStab:  Solving for CO2, Initial residual = 0.000001, Final residual = 0.000000, No Iterations 1
DILUPBiCGStab:  Solving for HCO, Initial residual = 0.001819, Final residual = 0.000000, No Iterations 1
DILUPBiCGStab:  Solving for CH2O, Initial residual = 0.004312, Final residual = 0.000000, No Iterations 1
DILUPBiCGStab:  Solving for CH2OH, Initial residual = 0.001532, Final residual = 0.000000, No Iterations 1
DILUPBiCGStab:  Solving for CH3O, Initial residual = 0.008278, Final residual = 0.000000, No Iterations 1
DILUPBiCGStab:  Solving for CH3OH, Initial residual = 0.007597, Final residual = 0.000000, No Iterations 1
DILUPBiCGStab:  Solving for C2H, Initial residual = 0.003004, Final residual = 0.000000, No Iterations 1
DILUPBiCGStab:  Solving for C2H2, Initial residual = 0.003531, Final residual = 0.000000, No Iterations 1
DILUPBiCGStab:  Solving for C2H3, Initial residual = 0.002073, Final residual = 0.000000, No Iterations 1
DILUPBiCGStab:  Solving for C2H4, Initial residual = 0.002764, Final residual = 0.000000, No Iterations 1
DILUPBiCGStab:  Solving for C2H5, Initial residual = 0.002918, Final residual = 0.000000, No Iterations 1
DILUPBiCGStab:  Solving for C2H6, Initial residual = 0.003723, Final residual = 0.000000, No Iterations 1
DILUPBiCGStab:  Solving for HCCO, Initial residual = 0.004116, Final residual = 0.000000, No Iterations 1
DILUPBiCGStab:  Solving for CH2CO, Initial residual = 0.004710, Final residual = 0.000000, No Iterations 1
DILUPBiCGStab:  Solving for HCCOH, Initial residual = 0.006636, Final residual = 0.000000, No Iterations 1
DILUPBiCGStab:  Solving for AR, Initial residual = 0.000000, Final residual = 0.000000, No Iterations 0
DILUPBiCGStab:  Solving for C3H7, Initial residual = 0.005417, Final residual = 0.000000, No Iterations 1
DILUPBiCGStab:  Solving for C3H8, Initial residual = 0.006935, Final residual = 0.000000, No Iterations 1
DILUPBiCGStab:  Solving for CH2CHO, Initial residual = 0.002786, Final residual = 0.000000, No Iterations 1
DILUPBiCGStab:  Solving for CH3CHO, Initial residual = 0.005047, Final residual = 0.000000, No Iterations 1
DILUPBiCGStab:  Solving for h, Initial residual = 0.000034, Final residual = 0.000000, No Iterations 1
min/max(T) = 291.000000, 1880.500464
DICPCG:  Solving for p, Initial residual = 0.021868, Final residual = 0.000012, No Iterations 1
diagonal:  Solving for rho, Initial residual = 0.000000, Final residual = 0.000000, No Iterations 0
time step continuity errors : sum local = 0.000000, global = 0.000000, cumulative = -0.000000
DICPCG:  Solving for p, Initial residual = 0.010714, Final residual = 0.000000, No Iterations 2
diagonal:  Solving for rho, Initial residual = 0.000000, Final residual = 0.000000, No Iterations 0
time step continuity errors : sum local = 0.000000, global = 0.000000, cumulative = -0.000000
DILUPBiCGStab:  Solving for epsilon, Initial residual = 0.000000, Final residual = 0.000000, No Iterations 0
DILUPBiCGStab:  Solving for k, Initial residual = 0.000000, Final residual = 0.000000, No Iterations 0
ExecutionTime = 0.206947 s  ClockTime = 0 s

Courant Number mean: 0.000265 max: 0.017454
deltaT = 0.000002
Time = 4.368e-06s

diagonal:  Solving for rho, Initial residual = 0.000000, Final residual = 0.000000, No Iterations 0
DILUPBiCGStab:  Solving for Ux, Initial residual = 0.000350, Final residual = 0.000000, No Iterations 1
DILUPBiCGStab:  Solving for Uy, Initial residual = 0.000040, Final residual = 0.000000, No Iterations 1
DILUPBiCGStab:  Solving for Uz, Initial residual = 0.000000, Final residual = 0.000000, No Iterations 0

CCM status
====================================
  acceleration ratio    phase space size     Unbalance ratio
               17.77                 291                0.14
====================================

CCM Solve Function Timing Analysis:
====================================
                     Step     Time(s)   Percent      Max(s)      Min(s)
           Initialization    0.000130     0.75%    0.000130    0.000129
            Cell_Grouping    0.002830    16.37%    0.002833    0.002821
             Distribution    0.000262     1.51%    0.000262    0.000262
                  Merging    0.000028     0.16%    0.000029    0.000028
         Post_merge_Total    0.000002     0.01%    0.000002    0.000001
        Reduce_PhaseSpace    0.000004     0.02%    0.000004    0.000003
    Reduce_UnbalanceRatio    0.000003     0.02%    0.000003    0.000003
        Reduce_TotalCells    0.000003     0.02%    0.000003    0.000002
         Debug_Operations    0.000003     0.02%    0.000003    0.000002
    Chemistry_Computation    0.013628    78.82%    0.013638    0.013606
               Comm_Setup    0.000003     0.02%    0.000003    0.000002
  Hash_Table_Construction    0.000031     0.18%    0.000031    0.000030
  Communication_Execution    0.000192     1.11%    0.000192    0.000191
          Rate_Assignment    0.000169     0.97%    0.000173    0.000167
       Cleanup_Statistics    0.000003     0.02%    0.000003    0.000003
====================================
                    Total    0.017300  100.00%

DILUPBiCGStab:  Solving for H2, Initial residual = 0.000046, Final residual = 0.000000, No Iterations 1
DILUPBiCGStab:  Solving for H, Initial residual = 0.004172, Final residual = 0.000000, No Iterations 1
DILUPBiCGStab:  Solving for O, Initial residual = 0.000146, Final residual = 0.000000, No Iterations 1
DILUPBiCGStab:  Solving for O2, Initial residual = 0.000010, Final residual = 0.000000, No Iterations 1
DILUPBiCGStab:  Solving for OH, Initial residual = 0.000578, Final residual = 0.000000, No Iterations 1
DILUPBiCGStab:  Solving for H2O, Initial residual = 0.000011, Final residual = 0.000000, No Iterations 1
DILUPBiCGStab:  Solving for HO2, Initial residual = 0.010067, Final residual = 0.000000, No Iterations 1
DILUPBiCGStab:  Solving for H2O2, Initial residual = 0.018003, Final residual = 0.000002, No Iterations 1
DILUPBiCGStab:  Solving for C, Initial residual = 0.000500, Final residual = 0.000000, No Iterations 1
DILUPBiCGStab:  Solving for CH, Initial residual = 0.000644, Final residual = 0.000000, No Iterations 1
DILUPBiCGStab:  Solving for CH2, Initial residual = 0.001167, Final residual = 0.000000, No Iterations 1
DILUPBiCGStab:  Solving for CH2(S), Initial residual = 0.001119, Final residual = 0.000000, No Iterations 1
DILUPBiCGStab:  Solving for CH3, Initial residual = 0.001107, Final residual = 0.000000, No Iterations 1
DILUPBiCGStab:  Solving for CH4, Initial residual = 0.000001, Final residual = 0.000000, No Iterations 1
DILUPBiCGStab:  Solving for CO, Initial residual = 0.000034, Final residual = 0.000000, No Iterations 1
DILUPBiCGStab:  Solving for CO2, Initial residual = 0.000001, Final residual = 0.000000, No Iterations 1
DILUPBiCGStab:  Solving for HCO, Initial residual = 0.000728, Final residual = 0.000000, No Iterations 1
DILUPBiCGStab:  Solving for CH2O, Initial residual = 0.002356, Final residual = 0.000000, No Iterations 1
DILUPBiCGStab:  Solving for CH2OH, Initial residual = 0.000684, Final residual = 0.000000, No Iterations 1
DILUPBiCGStab:  Solving for CH3O, Initial residual = 0.005776, Final residual = 0.000000, No Iterations 1
DILUPBiCGStab:  Solving for CH3OH, Initial residual = 0.004837, Final residual = 0.000000, No Iterations 1
DILUPBiCGStab:  Solving for C2H, Initial residual = 0.001654, Final residual = 0.000000, No Iterations 1
DILUPBiCGStab:  Solving for C2H2, Initial residual = 0.001878, Final residual = 0.000000, No Iterations 1
DILUPBiCGStab:  Solving for C2H3, Initial residual = 0.000643, Final residual = 0.000000, No Iterations 1
DILUPBiCGStab:  Solving for C2H4, Initial residual = 0.001130, Final residual = 0.000000, No Iterations 1
DILUPBiCGStab:  Solving for C2H5, Initial residual = 0.001208, Final residual = 0.000000, No Iterations 1
DILUPBiCGStab:  Solving for C2H6, Initial residual = 0.002255, Final residual = 0.000000, No Iterations 1
DILUPBiCGStab:  Solving for HCCO, Initial residual = 0.002242, Final residual = 0.000000, No Iterations 1
DILUPBiCGStab:  Solving for CH2CO, Initial residual = 0.002434, Final residual = 0.000000, No Iterations 1
DILUPBiCGStab:  Solving for HCCOH, Initial residual = 0.003623, Final residual = 0.000000, No Iterations 1
DILUPBiCGStab:  Solving for AR, Initial residual = 0.000000, Final residual = 0.000000, No Iterations 0
DILUPBiCGStab:  Solving for C3H7, Initial residual = 0.002197, Final residual = 0.000000, No Iterations 1
DILUPBiCGStab:  Solving for C3H8, Initial residual = 0.003996, Final residual = 0.000000, No Iterations 1
DILUPBiCGStab:  Solving for CH2CHO, Initial residual = 0.000855, Final residual = 0.000000, No Iterations 1
DILUPBiCGStab:  Solving for CH3CHO, Initial residual = 0.002177, Final residual = 0.000000, No Iterations 1
DILUPBiCGStab:  Solving for h, Initial residual = 0.000016, Final residual = 0.000000, No Iterations 1
min/max(T) = 291.000000, 1880.810162
DICPCG:  Solving for p, Initial residual = 0.005359, Final residual = 0.000005, No Iterations 1
diagonal:  Solving for rho, Initial residual = 0.000000, Final residual = 0.000000, No Iterations 0
time step continuity errors : sum local = 0.000000, global = -0.000000, cumulative = -0.000000
DICPCG:  Solving for p, Initial residual = 0.003012, Final residual = 0.000000, No Iterations 2
diagonal:  Solving for rho, Initial residual = 0.000000, Final residual = 0.000000, No Iterations 0
time step continuity errors : sum local = 0.000000, global = 0.000000, cumulative = -0.000000
DILUPBiCGStab:  Solving for epsilon, Initial residual = 0.000000, Final residual = 0.000000, No Iterations 0
DILUPBiCGStab:  Solving for k, Initial residual = 0.000000, Final residual = 0.000000, No Iterations 0
ExecutionTime = 0.248058 s  ClockTime = 0 s

Courant Number mean: 0.000318 max: 0.020910
deltaT = 0.000002
Time = 6.4416e-06s

diagonal:  Solving for rho, Initial residual = 0.000000, Final residual = 0.000000, No Iterations 0
DILUPBiCGStab:  Solving for Ux, Initial residual = 0.000495, Final residual = 0.000000, No Iterations 1
DILUPBiCGStab:  Solving for Uy, Initial residual = 0.000050, Final residual = 0.000000, No Iterations 1
DILUPBiCGStab:  Solving for Uz, Initial residual = 0.000001, Final residual = 0.000001, No Iterations 0

CCM status
====================================
  acceleration ratio    phase space size     Unbalance ratio
               17.23                 300                0.08
====================================

CCM Solve Function Timing Analysis:
====================================
                     Step     Time(s)   Percent      Max(s)      Min(s)
           Initialization    0.000140     0.99%    0.000140    0.000140
            Cell_Grouping    0.002835    20.05%    0.002839    0.002826
             Distribution    0.000371     2.63%    0.000372    0.000370
                  Merging    0.000036     0.25%    0.000036    0.000035
         Post_merge_Total    0.000002     0.01%    0.000002    0.000002
        Reduce_PhaseSpace    0.000004     0.03%    0.000004    0.000004
    Reduce_UnbalanceRatio    0.000003     0.03%    0.000004    0.000003
        Reduce_TotalCells    0.000003     0.02%    0.000003    0.000003
         Debug_Operations    0.000009     0.07%    0.000010    0.000003
    Chemistry_Computation    0.010289    72.83%    0.010316    0.010222
               Comm_Setup    0.000003     0.02%    0.000003    0.000002
  Hash_Table_Construction    0.000041     0.29%    0.000042    0.000041
  Communication_Execution    0.000226     1.60%    0.000227    0.000226
          Rate_Assignment    0.000165     1.16%    0.000165    0.000164
       Cleanup_Statistics    0.000003     0.02%    0.000003    0.000003
====================================
                    Total    0.014161  100.00%

DILUPBiCGStab:  Solving for H2, Initial residual = 0.000048, Final residual = 0.000000, No Iterations 1
DILUPBiCGStab:  Solving for H, Initial residual = 0.003522, Final residual = 0.000000, No Iterations 1
DILUPBiCGStab:  Solving for O, Initial residual = 0.000172, Final residual = 0.000000, No Iterations 1
DILUPBiCGStab:  Solving for O2, Initial residual = 0.000008, Final residual = 0.000000, No Iterations 1
DILUPBiCGStab:  Solving for OH, Initial residual = 0.000685, Final residual = 0.000000, No Iterations 1
DILUPBiCGStab:  Solving for H2O, Initial residual = 0.000013, Final residual = 0.000000, No Iterations 1
DILUPBiCGStab:  Solving for HO2, Initial residual = 0.008475, Final residual = 0.000000, No Iterations 1
DILUPBiCGStab:  Solving for H2O2, Initial residual = 0.015365, Final residual = 0.000002, No Iterations 1
DILUPBiCGStab:  Solving for C, Initial residual = 0.000375, Final residual = 0.000000, No Iterations 1
DILUPBiCGStab:  Solving for CH, Initial residual = 0.000564, Final residual = 0.000000, No Iterations 1
DILUPBiCGStab:  Solving for CH2, Initial residual = 0.001241, Final residual = 0.000000, No Iterations 1
DILUPBiCGStab:  Solving for CH2(S), Initial residual = 0.001200, Final residual = 0.000000, No Iterations 1
DILUPBiCGStab:  Solving for CH3, Initial residual = 0.001057, Final residual = 0.000000, No Iterations 1
DILUPBiCGStab:  Solving for CH4, Initial residual = 0.000001, Final residual = 0.000000, No Iterations 1
DILUPBiCGStab:  Solving for CO, Initial residual = 0.000039, Final residual = 0.000000, No Iterations 1
DILUPBiCGStab:  Solving for CO2, Initial residual = 0.000001, Final residual = 0.000000, No Iterations 1
DILUPBiCGStab:  Solving for HCO, Initial residual = 0.000598, Final residual = 0.000000, No Iterations 1
DILUPBiCGStab:  Solving for CH2O, Initial residual = 0.001998, Final residual = 0.000000, No Iterations 1
DILUPBiCGStab:  Solving for CH2OH, Initial residual = 0.000705, Final residual = 0.000000, No Iterations 1
DILUPBiCGStab:  Solving for CH3O, Initial residual = 0.003976, Final residual = 0.000000, No Iterations 1
DILUPBiCGStab:  Solving for CH3OH, Initial residual = 0.003986, Final residual = 0.000000, No Iterations 1
DILUPBiCGStab:  Solving for C2H, Initial residual = 0.001476, Final residual = 0.000000, No Iterations 1
DILUPBiCGStab:  Solving for C2H2, Initial residual = 0.001200, Final residual = 0.000000, No Iterations 1
DILUPBiCGStab:  Solving for C2H3, Initial residual = 0.000443, Final residual = 0.000000, No Iterations 1
DILUPBiCGStab:  Solving for C2H4, Initial residual = 0.000798, Final residual = 0.000000, No Iterations 1
DILUPBiCGStab:  Solving for C2H5, Initial residual = 0.000628, Final residual = 0.000000, No Iterations 1
DILUPBiCGStab:  Solving for C2H6, Initial residual = 0.001539, Final residual = 0.000000, No Iterations 1
DILUPBiCGStab:  Solving for HCCO, Initial residual = 0.001456, Final residual = 0.000000, No Iterations 1
DILUPBiCGStab:  Solving for CH2CO, Initial residual = 0.001432, Final residual = 0.000000, No Iterations 1
DILUPBiCGStab:  Solving for HCCOH, Initial residual = 0.002337, Final residual = 0.000000, No Iterations 1
DILUPBiCGStab:  Solving for AR, Initial residual = 0.000000, Final residual = 0.000000, No Iterations 0
DILUPBiCGStab:  Solving for C3H7, Initial residual = 0.000938, Final residual = 0.000000, No Iterations 1
DILUPBiCGStab:  Solving for C3H8, Initial residual = 0.002202, Final residual = 0.000000, No Iterations 1
DILUPBiCGStab:  Solving for CH2CHO, Initial residual = 0.000648, Final residual = 0.000000, No Iterations 1
DILUPBiCGStab:  Solving for CH3CHO, Initial residual = 0.001083, Final residual = 0.000000, No Iterations 1
DILUPBiCGStab:  Solving for h, Initial residual = 0.000019, Final residual = 0.000000, No Iterations 1
min/max(T) = 291.000000, 1881.187014
DICPCG:  Solving for p, Initial residual = 0.015518, Final residual = 0.000020, No Iterations 1
diagonal:  Solving for rho, Initial residual = 0.000000, Final residual = 0.000000, No Iterations 0
time step continuity errors : sum local = 0.000000, global = -0.000000, cumulative = -0.000000
DICPCG:  Solving for p, Initial residual = 0.008112, Final residual = 0.000000, No Iterations 2
diagonal:  Solving for rho, Initial residual = 0.000000, Final residual = 0.000000, No Iterations 0
time step continuity errors : sum local = 0.000000, global = 0.000000, cumulative = -0.000000
DILUPBiCGStab:  Solving for epsilon, Initial residual = 0.000000, Final residual = 0.000000, No Iterations 0
DILUPBiCGStab:  Solving for k, Initial residual = 0.000000, Final residual = 0.000000, No Iterations 0
ExecutionTime = 0.292433 s  ClockTime = 0 s

Courant Number mean: 0.000381 max: 0.025056
deltaT = 0.000002
Time = 8.92992e-06s

diagonal:  Solving for rho, Initial residual = 0.000000, Final residual = 0.000000, No Iterations 0
DILUPBiCGStab:  Solving for Ux, Initial residual = 0.000741, Final residual = 0.000000, No Iterations 1
DILUPBiCGStab:  Solving for Uy, Initial residual = 0.000059, Final residual = 0.000000, No Iterations 1
DILUPBiCGStab:  Solving for Uz, Initial residual = 0.000001, Final residual = 0.000001, No Iterations 0

CCM status
====================================
  acceleration ratio    phase space size     Unbalance ratio
               16.84                 307                0.12
====================================

CCM Solve Function Timing Analysis:
====================================
                     Step     Time(s)   Percent      Max(s)      Min(s)
           Initialization    0.000261     1.85%    0.000263    0.000260
            Cell_Grouping    0.002898    20.65%    0.002923    0.002772
             Distribution    0.000266     1.88%    0.000266    0.000265
                  Merging    0.000029     0.20%    0.000030    0.000029
         Post_merge_Total    0.000002     0.01%    0.000002    0.000002
        Reduce_PhaseSpace    0.000004     0.03%    0.000004    0.000004
    Reduce_UnbalanceRatio    0.000003     0.02%    0.000004    0.000003
        Reduce_TotalCells    0.000003     0.02%    0.000003    0.000002
         Debug_Operations    0.000003     0.02%    0.000004    0.000002
    Chemistry_Computation    0.011743    71.91%    0.012483    0.010179
               Comm_Setup    0.000003     0.01%    0.000003    0.000002
  Hash_Table_Construction    0.000040     0.28%    0.000041    0.000040
  Communication_Execution    0.000243     1.72%    0.000244    0.000242
          Rate_Assignment    0.000184     1.30%    0.000185    0.000184
       Cleanup_Statistics    0.000012     0.08%    0.000012    0.000012
====================================
                    Total    0.014155  100.00%

DILUPBiCGStab:  Solving for H2, Initial residual = 0.000049, Final residual = 0.000000, No Iterations 1
DILUPBiCGStab:  Solving for H, Initial residual = 0.002179, Final residual = 0.000000, No Iterations 1
DILUPBiCGStab:  Solving for O, Initial residual = 0.000182, Final residual = 0.000000, No Iterations 1
DILUPBiCGStab:  Solving for O2, Initial residual = 0.000007, Final residual = 0.000000, No Iterations 1
DILUPBiCGStab:  Solving for OH, Initial residual = 0.000742, Final residual = 0.000000, No Iterations 1
DILUPBiCGStab:  Solving for H2O, Initial residual = 0.000013, Final residual = 0.000000, No Iterations 1
DILUPBiCGStab:  Solving for HO2, Initial residual = 0.007653, Final residual = 0.000000, No Iterations 1
DILUPBiCGStab:  Solving for H2O2, Initial residual = 0.012813, Final residual = 0.000002, No Iterations 1
DILUPBiCGStab:  Solving for C, Initial residual = 0.000946, Final residual = 0.000000, No Iterations 1
DILUPBiCGStab:  Solving for CH, Initial residual = 0.000931, Final residual = 0.000000, No Iterations 1
DILUPBiCGStab:  Solving for CH2, Initial residual = 0.001273, Final residual = 0.000000, No Iterations 1
DILUPBiCGStab:  Solving for CH2(S), Initial residual = 0.001238, Final residual = 0.000000, No Iterations 1
DILUPBiCGStab:  Solving for CH3, Initial residual = 0.000924, Final residual = 0.000000, No Iterations 1
DILUPBiCGStab:  Solving for CH4, Initial residual = 0.000001, Final residual = 0.000000, No Iterations 1
DILUPBiCGStab:  Solving for CO, Initial residual = 0.000043, Final residual = 0.000000, No Iterations 1
DILUPBiCGStab:  Solving for CO2, Initial residual = 0.000001, Final residual = 0.000000, No Iterations 1
DILUPBiCGStab:  Solving for HCO, Initial residual = 0.000589, Final residual = 0.000000, No Iterations 1
DILUPBiCGStab:  Solving for CH2O, Initial residual = 0.001770, Final residual = 0.000000, No Iterations 1
DILUPBiCGStab:  Solving for CH2OH, Initial residual = 0.000901, Final residual = 0.000000, No Iterations 1
DILUPBiCGStab:  Solving for CH3O, Initial residual = 0.002772, Final residual = 0.000000, No Iterations 1
DILUPBiCGStab:  Solving for CH3OH, Initial residual = 0.003450, Final residual = 0.000000, No Iterations 1
DILUPBiCGStab:  Solving for C2H, Initial residual = 0.001462, Final residual = 0.000000, No Iterations 1
DILUPBiCGStab:  Solving for C2H2, Initial residual = 0.000997, Final residual = 0.000000, No Iterations 1
DILUPBiCGStab:  Solving for C2H3, Initial residual = 0.000279, Final residual = 0.000000, No Iterations 1
DILUPBiCGStab:  Solving for C2H4, Initial residual = 0.000643, Final residual = 0.000000, No Iterations 1
DILUPBiCGStab:  Solving for C2H5, Initial residual = 0.000328, Final residual = 0.000000, No Iterations 1
DILUPBiCGStab:  Solving for C2H6, Initial residual = 0.000993, Final residual = 0.000000, No Iterations 1
DILUPBiCGStab:  Solving for HCCO, Initial residual = 0.001314, Final residual = 0.000000, No Iterations 1
DILUPBiCGStab:  Solving for CH2CO, Initial residual = 0.001114, Final residual = 0.000000, No Iterations 1
DILUPBiCGStab:  Solving for HCCOH, Initial residual = 0.002083, Final residual = 0.000000, No Iterations 1
DILUPBiCGStab:  Solving for AR, Initial residual = 0.000000, Final residual = 0.000000, No Iterations 0
DILUPBiCGStab:  Solving for C3H7, Initial residual = 0.000659, Final residual = 0.000000, No Iterations 1
DILUPBiCGStab:  Solving for C3H8, Initial residual = 0.001450, Final residual = 0.000000, No Iterations 1
DILUPBiCGStab:  Solving for CH2CHO, Initial residual = 0.000394, Final residual = 0.000000, No Iterations 1
DILUPBiCGStab:  Solving for CH3CHO, Initial residual = 0.000929, Final residual = 0.000000, No Iterations 1
DILUPBiCGStab:  Solving for h, Initial residual = 0.000020, Final residual = 0.000000, No Iterations 1
min/max(T) = 291.000000, 1881.562965
DICPCG:  Solving for p, Initial residual = 0.006763, Final residual = 0.000010, No Iterations 1
diagonal:  Solving for rho, Initial residual = 0.000000, Final residual = 0.000000, No Iterations 0
time step continuity errors : sum local = 0.000000, global = -0.000000, cumulative = -0.000000
DICPCG:  Solving for p, Initial residual = 0.003770, Final residual = 0.000000, No Iterations 2
diagonal:  Solving for rho, Initial residual = 0.000000, Final residual = 0.000000, No Iterations 0
time step continuity errors : sum local = 0.000000, global = 0.000000, cumulative = -0.000000
DILUPBiCGStab:  Solving for epsilon, Initial residual = 0.000001, Final residual = 0.000001, No Iterations 0
DILUPBiCGStab:  Solving for k, Initial residual = 0.000000, Final residual = 0.000000, No Iterations 0
ExecutionTime = 0.335227 s  ClockTime = 0 s

Courant Number mean: 0.000458 max: 0.030073
deltaT = 0.000003
Time = 1.1915904e-05s

diagonal:  Solving for rho, Initial residual = 0.000000, Final residual = 0.000000, No Iterations 0
DILUPBiCGStab:  Solving for Ux, Initial residual = 0.001011, Final residual = 0.000000, No Iterations 1
DILUPBiCGStab:  Solving for Uy, Initial residual = 0.000072, Final residual = 0.000000, No Iterations 1
DILUPBiCGStab:  Solving for Uz, Initial residual = 0.000001, Final residual = 0.000000, No Iterations 1

CCM status
====================================
  acceleration ratio    phase space size     Unbalance ratio
               16.90                 306                0.23
====================================

CCM Solve Function Timing Analysis:
====================================
                     Step     Time(s)   Percent      Max(s)      Min(s)
           Initialization    0.000139     0.88%    0.000139    0.000138
            Cell_Grouping    0.002992    18.94%    0.002995    0.002986
             Distribution    0.000334     2.11%    0.000334    0.000333
                  Merging    0.000033     0.21%    0.000033    0.000032
         Post_merge_Total    0.000002     0.01%    0.000002    0.000002
        Reduce_PhaseSpace    0.000005     0.03%    0.000005    0.000004
    Reduce_UnbalanceRatio    0.000003     0.02%    0.000004    0.000003
        Reduce_TotalCells    0.000003     0.02%    0.000003    0.000003
         Debug_Operations    0.000012     0.03%    0.000051    0.000003
    Chemistry_Computation    0.011942    75.05%    0.011972    0.011869
               Comm_Setup    0.000003     0.01%    0.000003    0.000002
  Hash_Table_Construction    0.000035     0.22%    0.000035    0.000035
  Communication_Execution    0.000261     1.57%    0.000265    0.000248
          Rate_Assignment    0.000141     0.89%    0.000142    0.000141
       Cleanup_Statistics    0.000003     0.01%    0.000003    0.000002
====================================
                    Total    0.015814  100.00%

DILUPBiCGStab:  Solving for H2, Initial residual = 0.000052, Final residual = 0.000000, No Iterations 1
DILUPBiCGStab:  Solving for H, Initial residual = 0.001877, Final residual = 0.000000, No Iterations 1
DILUPBiCGStab:  Solving for O, Initial residual = 0.000198, Final residual = 0.000000, No Iterations 1
DILUPBiCGStab:  Solving for O2, Initial residual = 0.000008, Final residual = 0.000000, No Iterations 1
DILUPBiCGStab:  Solving for OH, Initial residual = 0.000814, Final residual = 0.000000, No Iterations 1
DILUPBiCGStab:  Solving for H2O, Initial residual = 0.000014, Final residual = 0.000000, No Iterations 1
DILUPBiCGStab:  Solving for HO2, Initial residual = 0.009353, Final residual = 0.000001, No Iterations 1
DILUPBiCGStab:  Solving for H2O2, Initial residual = 0.011418, Final residual = 0.000002, No Iterations 1
DILUPBiCGStab:  Solving for C, Initial residual = 0.001248, Final residual = 0.000000, No Iterations 1
DILUPBiCGStab:  Solving for CH, Initial residual = 0.001190, Final residual = 0.000000, No Iterations 1
DILUPBiCGStab:  Solving for CH2, Initial residual = 0.001380, Final residual = 0.000000, No Iterations 1
DILUPBiCGStab:  Solving for CH2(S), Initial residual = 0.001345, Final residual = 0.000000, No Iterations 1
DILUPBiCGStab:  Solving for CH3, Initial residual = 0.000860, Final residual = 0.000000, No Iterations 1
DILUPBiCGStab:  Solving for CH4, Initial residual = 0.000001, Final residual = 0.000000, No Iterations 1
DILUPBiCGStab:  Solving for CO, Initial residual = 0.000048, Final residual = 0.000000, No Iterations 1
DILUPBiCGStab:  Solving for CO2, Initial residual = 0.000001, Final residual = 0.000000, No Iterations 1
DILUPBiCGStab:  Solving for HCO, Initial residual = 0.000790, Final residual = 0.000000, No Iterations 1
DILUPBiCGStab:  Solving for CH2O, Initial residual = 0.001723, Final residual = 0.000000, No Iterations 1
DILUPBiCGStab:  Solving for CH2OH, Initial residual = 0.001095, Final residual = 0.000000, No Iterations 1
DILUPBiCGStab:  Solving for CH3O, Initial residual = 0.002200, Final residual = 0.000000, No Iterations 1
DILUPBiCGStab:  Solving for CH3OH, Initial residual = 0.003200, Final residual = 0.000001, No Iterations 1
DILUPBiCGStab:  Solving for C2H, Initial residual = 0.001227, Final residual = 0.000000, No Iterations 1
DILUPBiCGStab:  Solving for C2H2, Initial residual = 0.000818, Final residual = 0.000000, No Iterations 1
DILUPBiCGStab:  Solving for C2H3, Initial residual = 0.000205, Final residual = 0.000000, No Iterations 1
DILUPBiCGStab:  Solving for C2H4, Initial residual = 0.000551, Final residual = 0.000000, No Iterations 1
DILUPBiCGStab:  Solving for C2H5, Initial residual = 0.000252, Final residual = 0.000000, No Iterations 1
DILUPBiCGStab:  Solving for C2H6, Initial residual = 0.000774, Final residual = 0.000000, No Iterations 1
DILUPBiCGStab:  Solving for HCCO, Initial residual = 0.001111, Final residual = 0.000000, No Iterations 1
DILUPBiCGStab:  Solving for CH2CO, Initial residual = 0.000877, Final residual = 0.000000, No Iterations 1
DILUPBiCGStab:  Solving for HCCOH, Initial residual = 0.001732, Final residual = 0.000000, No Iterations 1
DILUPBiCGStab:  Solving for AR, Initial residual = 0.000000, Final residual = 0.000000, No Iterations 0
DILUPBiCGStab:  Solving for C3H7, Initial residual = 0.000462, Final residual = 0.000000, No Iterations 1
DILUPBiCGStab:  Solving for C3H8, Initial residual = 0.001021, Final residual = 0.000000, No Iterations 1
DILUPBiCGStab:  Solving for CH2CHO, Initial residual = 0.000313, Final residual = 0.000000, No Iterations 1
DILUPBiCGStab:  Solving for CH3CHO, Initial residual = 0.000678, Final residual = 0.000000, No Iterations 1
DILUPBiCGStab:  Solving for h, Initial residual = 0.000018, Final residual = 0.000000, No Iterations 1
min/max(T) = 291.000000, 1881.923409
DICPCG:  Solving for p, Initial residual = 0.009297, Final residual = 0.000022, No Iterations 1
diagonal:  Solving for rho, Initial residual = 0.000000, Final residual = 0.000000, No Iterations 0
time step continuity errors : sum local = 0.000000, global = -0.000000, cumulative = -0.000000
DICPCG:  Solving for p, Initial residual = 0.005122, Final residual = 0.000001, No Iterations 2
diagonal:  Solving for rho, Initial residual = 0.000000, Final residual = 0.000000, No Iterations 0
time step continuity errors : sum local = 0.000000, global = 0.000000, cumulative = -0.000000
DILUPBiCGStab:  Solving for epsilon, Initial residual = 0.000001, Final residual = 0.000001, No Iterations 0
DILUPBiCGStab:  Solving for k, Initial residual = 0.000000, Final residual = 0.000000, No Iterations 0
ExecutionTime = 0.372610 s  ClockTime = 0 s

Courant Number mean: 0.000549 max: 0.036498
deltaT = 0.000004
Time = 1.54990848e-05s

diagonal:  Solving for rho, Initial residual = 0.000000, Final residual = 0.000000, No Iterations 0
DILUPBiCGStab:  Solving for Ux, Initial residual = 0.001398, Final residual = 0.000000, No Iterations 1
DILUPBiCGStab:  Solving for Uy, Initial residual = 0.000086, Final residual = 0.000000, No Iterations 1
DILUPBiCGStab:  Solving for Uz, Initial residual = 0.000002, Final residual = 0.000000, No Iterations 1

CCM status
====================================
  acceleration ratio    phase space size     Unbalance ratio
               16.16                 320                0.24
====================================

CCM Solve Function Timing Analysis:
====================================
                     Step     Time(s)   Percent      Max(s)      Min(s)
           Initialization    0.000213     1.34%    0.000213    0.000212
            Cell_Grouping    0.002972    18.79%    0.002974    0.002964
             Distribution    0.000281     1.78%    0.000282    0.000281
                  Merging    0.000029     0.18%    0.000034    0.000028
         Post_merge_Total    0.000002     0.01%    0.000002    0.000002
        Reduce_PhaseSpace    0.000004     0.03%    0.000004    0.000004
    Reduce_UnbalanceRatio    0.000003     0.02%    0.000004    0.000003
        Reduce_TotalCells    0.000003     0.02%    0.000003    0.000003
         Debug_Operations    0.000006     0.04%    0.000007    0.000005
    Chemistry_Computation    0.011855    74.94%    0.011859    0.011849
               Comm_Setup    0.000002     0.02%    0.000003    0.000002
  Hash_Table_Construction    0.000036     0.23%    0.000037    0.000036
  Communication_Execution    0.000224     1.41%    0.000225    0.000223
          Rate_Assignment    0.000187     1.18%    0.000188    0.000186
       Cleanup_Statistics    0.000003     0.02%    0.000003    0.000003
====================================
                    Total    0.015824  100.00%

DILUPBiCGStab:  Solving for H2, Initial residual = 0.000057, Final residual = 0.000000, No Iterations 1
DILUPBiCGStab:  Solving for H, Initial residual = 0.001692, Final residual = 0.000000, No Iterations 1
DILUPBiCGStab:  Solving for O, Initial residual = 0.000221, Final residual = 0.000000, No Iterations 1
DILUPBiCGStab:  Solving for O2, Initial residual = 0.000007, Final residual = 0.000000, No Iterations 1
DILUPBiCGStab:  Solving for OH, Initial residual = 0.000884, Final residual = 0.000000, No Iterations 1
DILUPBiCGStab:  Solving for H2O, Initial residual = 0.000015, Final residual = 0.000000, No Iterations 1
DILUPBiCGStab:  Solving for HO2, Initial residual = 0.009207, Final residual = 0.000001, No Iterations 1
DILUPBiCGStab:  Solving for H2O2, Initial residual = 0.010330, Final residual = 0.000002, No Iterations 1
DILUPBiCGStab:  Solving for C, Initial residual = 0.000447, Final residual = 0.000000, No Iterations 1
DILUPBiCGStab:  Solving for CH, Initial residual = 0.000518, Final residual = 0.000000, No Iterations 1
DILUPBiCGStab:  Solving for CH2, Initial residual = 0.001182, Final residual = 0.000000, No Iterations 1
DILUPBiCGStab:  Solving for CH2(S), Initial residual = 0.001106, Final residual = 0.000000, No Iterations 1
DILUPBiCGStab:  Solving for CH3, Initial residual = 0.000777, Final residual = 0.000000, No Iterations 1
DILUPBiCGStab:  Solving for CH4, Initial residual = 0.000001, Final residual = 0.000000, No Iterations 1
DILUPBiCGStab:  Solving for CO, Initial residual = 0.000053, Final residual = 0.000000, No Iterations 1
DILUPBiCGStab:  Solving for CO2, Initial residual = 0.000001, Final residual = 0.000000, No Iterations 1
DILUPBiCGStab:  Solving for HCO, Initial residual = 0.000570, Final residual = 0.000000, No Iterations 1
DILUPBiCGStab:  Solving for CH2O, Initial residual = 0.001684, Final residual = 0.000000, No Iterations 1
DILUPBiCGStab:  Solving for CH2OH, Initial residual = 0.000780, Final residual = 0.000000, No Iterations 1
DILUPBiCGStab:  Solving for CH3O, Initial residual = 0.001803, Final residual = 0.000000, No Iterations 1
DILUPBiCGStab:  Solving for CH3OH, Initial residual = 0.003032, Final residual = 0.000001, No Iterations 1
DILUPBiCGStab:  Solving for C2H, Initial residual = 0.000799, Final residual = 0.000000, No Iterations 1
DILUPBiCGStab:  Solving for C2H2, Initial residual = 0.000647, Final residual = 0.000000, No Iterations 1
DILUPBiCGStab:  Solving for C2H3, Initial residual = 0.000065, Final residual = 0.000000, No Iterations 1
DILUPBiCGStab:  Solving for C2H4, Initial residual = 0.000481, Final residual = 0.000000, No Iterations 1
DILUPBiCGStab:  Solving for C2H5, Initial residual = 0.000299, Final residual = 0.000000, No Iterations 1
DILUPBiCGStab:  Solving for C2H6, Initial residual = 0.000622, Final residual = 0.000000, No Iterations 1
DILUPBiCGStab:  Solving for HCCO, Initial residual = 0.000846, Final residual = 0.000000, No Iterations 1
DILUPBiCGStab:  Solving for CH2CO, Initial residual = 0.000712, Final residual = 0.000000, No Iterations 1
DILUPBiCGStab:  Solving for HCCOH, Initial residual = 0.001335, Final residual = 0.000000, No Iterations 1
DILUPBiCGStab:  Solving for AR, Initial residual = 0.000000, Final residual = 0.000000, No Iterations 0
DILUPBiCGStab:  Solving for C3H7, Initial residual = 0.000289, Final residual = 0.000000, No Iterations 1
DILUPBiCGStab:  Solving for C3H8, Initial residual = 0.000752, Final residual = 0.000000, No Iterations 1
DILUPBiCGStab:  Solving for CH2CHO, Initial residual = 0.000302, Final residual = 0.000000, No Iterations 1
DILUPBiCGStab:  Solving for CH3CHO, Initial residual = 0.000524, Final residual = 0.000000, No Iterations 1
DILUPBiCGStab:  Solving for h, Initial residual = 0.000020, Final residual = 0.000000, No Iterations 1
min/max(T) = 291.000000, 1882.311091
DICPCG:  Solving for p, Initial residual = 0.008058, Final residual = 0.000029, No Iterations 1
diagonal:  Solving for rho, Initial residual = 0.000000, Final residual = 0.000000, No Iterations 0
time step continuity errors : sum local = 0.000000, global = -0.000000, cumulative = -0.000000
DICPCG:  Solving for p, Initial residual = 0.004526, Final residual = 0.000001, No Iterations 2
diagonal:  Solving for rho, Initial residual = 0.000000, Final residual = 0.000000, No Iterations 0
time step continuity errors : sum local = 0.000000, global = 0.000000, cumulative = -0.000000
DILUPBiCGStab:  Solving for epsilon, Initial residual = 0.000001, Final residual = 0.000000, No Iterations 1
DILUPBiCGStab:  Solving for k, Initial residual = 0.000001, Final residual = 0.000001, No Iterations 0
ExecutionTime = 0.410615 s  ClockTime = 0 s

Courant Number mean: 0.000659 max: 0.044446
deltaT = 0.000004
Time = 1.979890176e-05s

diagonal:  Solving for rho, Initial residual = 0.000000, Final residual = 0.000000, No Iterations 0
DILUPBiCGStab:  Solving for Ux, Initial residual = 0.001815, Final residual = 0.000000, No Iterations 1
DILUPBiCGStab:  Solving for Uy, Initial residual = 0.000103, Final residual = 0.000000, No Iterations 1
DILUPBiCGStab:  Solving for Uz, Initial residual = 0.000002, Final residual = 0.000000, No Iterations 1

CCM status
====================================
  acceleration ratio    phase space size     Unbalance ratio
               15.96                 324                0.22
====================================

CCM Solve Function Timing Analysis:
====================================
                     Step     Time(s)   Percent      Max(s)      Min(s)
           Initialization    0.000137     0.83%    0.000138    0.000136
            Cell_Grouping    0.003217    18.80%    0.003247    0.003083
             Distribution    0.000414     2.52%    0.000415    0.000413
                  Merging    0.000044     0.27%    0.000045    0.000044
         Post_merge_Total    0.000002     0.01%    0.000003    0.000002
        Reduce_PhaseSpace    0.000005     0.03%    0.000005    0.000004
    Reduce_UnbalanceRatio    0.000004     0.02%    0.000004    0.000004
        Reduce_TotalCells    0.000004     0.02%    0.000004    0.000003
         Debug_Operations    0.000005     0.04%    0.000006    0.000004
    Chemistry_Computation    0.012379    74.96%    0.012398    0.012294
               Comm_Setup    0.000002     0.02%    0.000003    0.000002
  Hash_Table_Construction    0.000029     0.18%    0.000029    0.000028
  Communication_Execution    0.000230     1.40%    0.000230    0.000229
          Rate_Assignment    0.000144     0.88%    0.000145    0.000143
       Cleanup_Statistics    0.000003     0.02%    0.000003    0.000002
====================================
                    Total    0.016401  100.00%

DILUPBiCGStab:  Solving for H2, Initial residual = 0.000062, Final residual = 0.000000, No Iterations 1
DILUPBiCGStab:  Solving for H, Initial residual = 0.001605, Final residual = 0.000000, No Iterations 1
DILUPBiCGStab:  Solving for O, Initial residual = 0.000247, Final residual = 0.000000, No Iterations 1
DILUPBiCGStab:  Solving for O2, Initial residual = 0.000007, Final residual = 0.000000, No Iterations 1
DILUPBiCGStab:  Solving for OH, Initial residual = 0.000948, Final residual = 0.000000, No Iterations 1
DILUPBiCGStab:  Solving for H2O, Initial residual = 0.000016, Final residual = 0.000000, No Iterations 1
DILUPBiCGStab:  Solving for HO2, Initial residual = 0.009520, Final residual = 0.000001, No Iterations 1
DILUPBiCGStab:  Solving for H2O2, Initial residual = 0.009449, Final residual = 0.000002, No Iterations 1
DILUPBiCGStab:  Solving for C, Initial residual = 0.000483, Final residual = 0.000000, No Iterations 1
DILUPBiCGStab:  Solving for CH, Initial residual = 0.000527, Final residual = 0.000000, No Iterations 1
DILUPBiCGStab:  Solving for CH2, Initial residual = 0.001337, Final residual = 0.000000, No Iterations 1
DILUPBiCGStab:  Solving for CH2(S), Initial residual = 0.001222, Final residual = 0.000000, No Iterations 1
DILUPBiCGStab:  Solving for CH3, Initial residual = 0.000729, Final residual = 0.000000, No Iterations 1
DILUPBiCGStab:  Solving for CH4, Initial residual = 0.000001, Final residual = 0.000000, No Iterations 1
DILUPBiCGStab:  Solving for CO, Initial residual = 0.000059, Final residual = 0.000000, No Iterations 1
DILUPBiCGStab:  Solving for CO2, Initial residual = 0.000002, Final residual = 0.000000, No Iterations 1
DILUPBiCGStab:  Solving for HCO, Initial residual = 0.000596, Final residual = 0.000000, No Iterations 1
DILUPBiCGStab:  Solving for CH2O, Initial residual = 0.001691, Final residual = 0.000000, No Iterations 1
DILUPBiCGStab:  Solving for CH2OH, Initial residual = 0.000827, Final residual = 0.000000, No Iterations 1
DILUPBiCGStab:  Solving for CH3O, Initial residual = 0.001498, Final residual = 0.000000, No Iterations 1
DILUPBiCGStab:  Solving for CH3OH, Initial residual = 0.002920, Final residual = 0.000001, No Iterations 1
DILUPBiCGStab:  Solving for C2H, Initial residual = 0.000404, Final residual = 0.000000, No Iterations 1
DILUPBiCGStab:  Solving for C2H2, Initial residual = 0.000490, Final residual = 0.000000, No Iterations 1
DILUPBiCGStab:  Solving for C2H3, Initial residual = 0.000161, Final residual = 0.000000, No Iterations 1
DILUPBiCGStab:  Solving for C2H4, Initial residual = 0.000447, Final residual = 0.000000, No Iterations 1
DILUPBiCGStab:  Solving for C2H5, Initial residual = 0.000305, Final residual = 0.000000, No Iterations 1
DILUPBiCGStab:  Solving for C2H6, Initial residual = 0.000519, Final residual = 0.000000, No Iterations 1
DILUPBiCGStab:  Solving for HCCO, Initial residual = 0.000526, Final residual = 0.000000, No Iterations 1
DILUPBiCGStab:  Solving for CH2CO, Initial residual = 0.000569, Final residual = 0.000000, No Iterations 1
DILUPBiCGStab:  Solving for HCCOH, Initial residual = 0.000853, Final residual = 0.000000, No Iterations 1
DILUPBiCGStab:  Solving for AR, Initial residual = 0.000000, Final residual = 0.000000, No Iterations 0
DILUPBiCGStab:  Solving for C3H7, Initial residual = 0.000288, Final residual = 0.000000, No Iterations 1
DILUPBiCGStab:  Solving for C3H8, Initial residual = 0.000564, Final residual = 0.000000, No Iterations 1
DILUPBiCGStab:  Solving for CH2CHO, Initial residual = 0.000370, Final residual = 0.000000, No Iterations 1
DILUPBiCGStab:  Solving for CH3CHO, Initial residual = 0.000447, Final residual = 0.000000, No Iterations 1
DILUPBiCGStab:  Solving for h, Initial residual = 0.000020, Final residual = 0.000000, No Iterations 1
min/max(T) = 291.000000, 1882.737431
DICPCG:  Solving for p, Initial residual = 0.008209, Final residual = 0.000044, No Iterations 1
diagonal:  Solving for rho, Initial residual = 0.000000, Final residual = 0.000000, No Iterations 0
time step continuity errors : sum local = 0.000000, global = -0.000000, cumulative = -0.000000
DICPCG:  Solving for p, Initial residual = 0.004631, Final residual = 0.000000, No Iterations 3
diagonal:  Solving for rho, Initial residual = 0.000000, Final residual = 0.000000, No Iterations 0
time step continuity errors : sum local = 0.000000, global = -0.000000, cumulative = -0.000000
DILUPBiCGStab:  Solving for epsilon, Initial residual = 0.000002, Final residual = 0.000000, No Iterations 1
DILUPBiCGStab:  Solving for k, Initial residual = 0.000001, Final residual = 0.000001, No Iterations 0
ExecutionTime = 0.448665 s  ClockTime = 0 s

Courant Number mean: 0.000791 max: 0.053885
deltaT = 0.000005
Time = 2.495868211e-05s

diagonal:  Solving for rho, Initial residual = 0.000000, Final residual = 0.000000, No Iterations 0
DILUPBiCGStab:  Solving for Ux, Initial residual = 0.002396, Final residual = 0.000000, No Iterations 1
DILUPBiCGStab:  Solving for Uy, Initial residual = 0.000123, Final residual = 0.000000, No Iterations 1
DILUPBiCGStab:  Solving for Uz, Initial residual = 0.000003, Final residual = 0.000000, No Iterations 1

CCM status
====================================
  acceleration ratio    phase space size     Unbalance ratio
               16.26                 318                0.17
====================================

CCM Solve Function Timing Analysis:
====================================
                     Step     Time(s)   Percent      Max(s)      Min(s)
           Initialization    0.000139     0.85%    0.000140    0.000138
            Cell_Grouping    0.003133    19.21%    0.003135    0.003132
             Distribution    0.000364     2.24%    0.000370    0.000352
                  Merging    0.000031     0.19%    0.000032    0.000031
         Post_merge_Total    0.000002     0.01%    0.000002    0.000001
        Reduce_PhaseSpace    0.000005     0.03%    0.000005    0.000004
    Reduce_UnbalanceRatio    0.000004     0.02%    0.000004    0.000004
        Reduce_TotalCells    0.000003     0.02%    0.000003    0.000002
         Debug_Operations    0.000003     0.02%    0.000004    0.000003
    Chemistry_Computation    0.012553    74.45%    0.012855    0.011842
               Comm_Setup    0.000003     0.02%    0.000003    0.000002
  Hash_Table_Construction    0.000047     0.28%    0.000048    0.000046
  Communication_Execution    0.000236     1.45%    0.000237    0.000236
          Rate_Assignment    0.000193     1.19%    0.000194    0.000192
       Cleanup_Statistics    0.000003     0.02%    0.000004    0.000003
====================================
                    Total    0.016304  100.00%

DILUPBiCGStab:  Solving for H2, Initial residual = 0.000069, Final residual = 0.000000, No Iterations 1
DILUPBiCGStab:  Solving for H, Initial residual = 0.001435, Final residual = 0.000000, No Iterations 1
DILUPBiCGStab:  Solving for O, Initial residual = 0.000279, Final residual = 0.000000, No Iterations 1
DILUPBiCGStab:  Solving for O2, Initial residual = 0.000007, Final residual = 0.000000, No Iterations 1
DILUPBiCGStab:  Solving for OH, Initial residual = 0.001012, Final residual = 0.000000, No Iterations 1
DILUPBiCGStab:  Solving for H2O, Initial residual = 0.000016, Final residual = 0.000000, No Iterations 1
DILUPBiCGStab:  Solving for HO2, Initial residual = 0.009640, Final residual = 0.000002, No Iterations 1
DILUPBiCGStab:  Solving for H2O2, Initial residual = 0.008744, Final residual = 0.000002, No Iterations 1
DILUPBiCGStab:  Solving for C, Initial residual = 0.000601, Final residual = 0.000000, No Iterations 1
DILUPBiCGStab:  Solving for CH, Initial residual = 0.000647, Final residual = 0.000000, No Iterations 1
DILUPBiCGStab:  Solving for CH2, Initial residual = 0.001590, Final residual = 0.000000, No Iterations 1
DILUPBiCGStab:  Solving for CH2(S), Initial residual = 0.001428, Final residual = 0.000000, No Iterations 1
DILUPBiCGStab:  Solving for CH3, Initial residual = 0.000702, Final residual = 0.000000, No Iterations 1
DILUPBiCGStab:  Solving for CH4, Initial residual = 0.000001, Final residual = 0.000000, No Iterations 1
DILUPBiCGStab:  Solving for CO, Initial residual = 0.000065, Final residual = 0.000000, No Iterations 1
DILUPBiCGStab:  Solving for CO2, Initial residual = 0.000002, Final residual = 0.000000, No Iterations 1
DILUPBiCGStab:  Solving for HCO, Initial residual = 0.000718, Final residual = 0.000000, No Iterations 1
DILUPBiCGStab:  Solving for CH2O, Initial residual = 0.001716, Final residual = 0.000000, No Iterations 1
DILUPBiCGStab:  Solving for CH2OH, Initial residual = 0.000961, Final residual = 0.000000, No Iterations 1
DILUPBiCGStab:  Solving for CH3O, Initial residual = 0.001265, Final residual = 0.000000, No Iterations 1
DILUPBiCGStab:  Solving for CH3OH, Initial residual = 0.002844, Final residual = 0.000001, No Iterations 1
DILUPBiCGStab:  Solving for C2H, Initial residual = 0.000156, Final residual = 0.000000, No Iterations 1
DILUPBiCGStab:  Solving for C2H2, Initial residual = 0.000495, Final residual = 0.000000, No Iterations 1
DILUPBiCGStab:  Solving for C2H3, Initial residual = 0.000272, Final residual = 0.000000, No Iterations 1
DILUPBiCGStab:  Solving for C2H4, Initial residual = 0.000417, Final residual = 0.000000, No Iterations 1
DILUPBiCGStab:  Solving for C2H5, Initial residual = 0.000345, Final residual = 0.000000, No Iterations 1
DILUPBiCGStab:  Solving for C2H6, Initial residual = 0.000444, Final residual = 0.000000, No Iterations 1
DILUPBiCGStab:  Solving for HCCO, Initial residual = 0.000188, Final residual = 0.000000, No Iterations 1
DILUPBiCGStab:  Solving for CH2CO, Initial residual = 0.000449, Final residual = 0.000000, No Iterations 1
DILUPBiCGStab:  Solving for HCCOH, Initial residual = 0.000375, Final residual = 0.000000, No Iterations 1
DILUPBiCGStab:  Solving for AR, Initial residual = 0.000000, Final residual = 0.000000, No Iterations 0
DILUPBiCGStab:  Solving for C3H7, Initial residual = 0.000324, Final residual = 0.000000, No Iterations 1
DILUPBiCGStab:  Solving for C3H8, Initial residual = 0.000431, Final residual = 0.000000, No Iterations 1
DILUPBiCGStab:  Solving for CH2CHO, Initial residual = 0.000435, Final residual = 0.000000, No Iterations 1
DILUPBiCGStab:  Solving for CH3CHO, Initial residual = 0.000423, Final residual = 0.000000, No Iterations 1
DILUPBiCGStab:  Solving for h, Initial residual = 0.000021, Final residual = 0.000000, No Iterations 1
min/max(T) = 291.000000, 1883.245958
DICPCG:  Solving for p, Initial residual = 0.008174, Final residual = 0.000070, No Iterations 1
diagonal:  Solving for rho, Initial residual = 0.000000, Final residual = 0.000000, No Iterations 0
time step continuity errors : sum local = 0.000000, global = -0.000000, cumulative = -0.000000
DICPCG:  Solving for p, Initial residual = 0.004662, Final residual = 0.000000, No Iterations 3
diagonal:  Solving for rho, Initial residual = 0.000000, Final residual = 0.000000, No Iterations 0
time step continuity errors : sum local = 0.000000, global = -0.000000, cumulative = -0.000000
DILUPBiCGStab:  Solving for epsilon, Initial residual = 0.000002, Final residual = 0.000000, No Iterations 1
DILUPBiCGStab:  Solving for k, Initial residual = 0.000001, Final residual = 0.000001, No Iterations 0
ExecutionTime = 0.508331 s  ClockTime = 0 s

Courant Number mean: 0.000950 max: 0.064515
deltaT = 0.000006
Time = 3.115041853e-05s

diagonal:  Solving for rho, Initial residual = 0.000000, Final residual = 0.000000, No Iterations 0
DILUPBiCGStab:  Solving for Ux, Initial residual = 0.003071, Final residual = 0.000001, No Iterations 1
DILUPBiCGStab:  Solving for Uy, Initial residual = 0.000148, Final residual = 0.000000, No Iterations 1
DILUPBiCGStab:  Solving for Uz, Initial residual = 0.000004, Final residual = 0.000000, No Iterations 1

CCM status
====================================
  acceleration ratio    phase space size     Unbalance ratio
               15.57                 332                0.12
====================================

CCM Solve Function Timing Analysis:
====================================
                     Step     Time(s)   Percent      Max(s)      Min(s)
           Initialization    0.000183     0.99%    0.000184    0.000182
            Cell_Grouping    0.003553    16.68%    0.003646    0.003091
             Distribution    0.000322     1.86%    0.000360    0.000295
                  Merging    0.000043     0.23%    0.000047    0.000040
         Post_merge_Total    0.000002     0.02%    0.000003    0.000002
        Reduce_PhaseSpace    0.000005     0.03%    0.000005    0.000005
    Reduce_UnbalanceRatio    0.000004     0.02%    0.000004    0.000004
        Reduce_TotalCells    0.000003     0.02%    0.000003    0.000002
         Debug_Operations    0.000003     0.02%    0.000004    0.000002
    Chemistry_Computation    0.013930    76.58%    0.014435    0.011871
               Comm_Setup    0.000003     0.01%    0.000004    0.000002
  Hash_Table_Construction    0.000047     0.25%    0.000048    0.000047
  Communication_Execution    0.000245     1.32%    0.000246    0.000245
          Rate_Assignment    0.000328     1.97%    0.000365    0.000202
       Cleanup_Statistics    0.000003     0.02%    0.000004    0.000003
====================================
                    Total    0.018535  100.00%

DILUPBiCGStab:  Solving for H2, Initial residual = 0.000080, Final residual = 0.000000, No Iterations 1
DILUPBiCGStab:  Solving for H, Initial residual = 0.001419, Final residual = 0.000000, No Iterations 1
DILUPBiCGStab:  Solving for O, Initial residual = 0.000318, Final residual = 0.000000, No Iterations 1
DILUPBiCGStab:  Solving for O2, Initial residual = 0.000007, Final residual = 0.000000, No Iterations 1
DILUPBiCGStab:  Solving for OH, Initial residual = 0.001070, Final residual = 0.000000, No Iterations 1
DILUPBiCGStab:  Solving for H2O, Initial residual = 0.000017, Final residual = 0.000000, No Iterations 1
DILUPBiCGStab:  Solving for HO2, Initial residual = 0.009602, Final residual = 0.000002, No Iterations 1
DILUPBiCGStab:  Solving for H2O2, Initial residual = 0.008113, Final residual = 0.000003, No Iterations 1
DILUPBiCGStab:  Solving for C, Initial residual = 0.000778, Final residual = 0.000000, No Iterations 1
DILUPBiCGStab:  Solving for CH, Initial residual = 0.000835, Final residual = 0.000000, No Iterations 1
DILUPBiCGStab:  Solving for CH2, Initial residual = 0.001920, Final residual = 0.000000, No Iterations 1
DILUPBiCGStab:  Solving for CH2(S), Initial residual = 0.001710, Final residual = 0.000000, No Iterations 1
DILUPBiCGStab:  Solving for CH3, Initial residual = 0.000705, Final residual = 0.000000, No Iterations 1
DILUPBiCGStab:  Solving for CH4, Initial residual = 0.000001, Final residual = 0.000000, No Iterations 1
DILUPBiCGStab:  Solving for CO, Initial residual = 0.000071, Final residual = 0.000000, No Iterations 1
DILUPBiCGStab:  Solving for CO2, Initial residual = 0.000002, Final residual = 0.000000, No Iterations 1
DILUPBiCGStab:  Solving for HCO, Initial residual = 0.000846, Final residual = 0.000000, No Iterations 1
DILUPBiCGStab:  Solving for CH2O, Initial residual = 0.001744, Final residual = 0.000001, No Iterations 1
DILUPBiCGStab:  Solving for CH2OH, Initial residual = 0.001135, Final residual = 0.000000, No Iterations 1
DILUPBiCGStab:  Solving for CH3O, Initial residual = 0.001068, Final residual = 0.000000, No Iterations 1
DILUPBiCGStab:  Solving for CH3OH, Initial residual = 0.002773, Final residual = 0.000001, No Iterations 1
DILUPBiCGStab:  Solving for C2H, Initial residual = 0.000465, Final residual = 0.000000, No Iterations 1
DILUPBiCGStab:  Solving for C2H2, Initial residual = 0.000621, Final residual = 0.000000, No Iterations 1
DILUPBiCGStab:  Solving for C2H3, Initial residual = 0.000349, Final residual = 0.000000, No Iterations 1
DILUPBiCGStab:  Solving for C2H4, Initial residual = 0.000388, Final residual = 0.000000, No Iterations 1
DILUPBiCGStab:  Solving for C2H5, Initial residual = 0.000377, Final residual = 0.000000, No Iterations 1
DILUPBiCGStab:  Solving for C2H6, Initial residual = 0.000387, Final residual = 0.000000, No Iterations 1
DILUPBiCGStab:  Solving for HCCO, Initial residual = 0.000302, Final residual = 0.000000, No Iterations 1
DILUPBiCGStab:  Solving for CH2CO, Initial residual = 0.000513, Final residual = 0.000000, No Iterations 1
DILUPBiCGStab:  Solving for HCCOH, Initial residual = 0.000326, Final residual = 0.000000, No Iterations 1
DILUPBiCGStab:  Solving for AR, Initial residual = 0.000000, Final residual = 0.000000, No Iterations 0
DILUPBiCGStab:  Solving for C3H7, Initial residual = 0.000319, Final residual = 0.000000, No Iterations 1
DILUPBiCGStab:  Solving for C3H8, Initial residual = 0.000335, Final residual = 0.000000, No Iterations 1
DILUPBiCGStab:  Solving for CH2CHO, Initial residual = 0.000481, Final residual = 0.000000, No Iterations 1
DILUPBiCGStab:  Solving for CH3CHO, Initial residual = 0.000401, Final residual = 0.000000, No Iterations 1
DILUPBiCGStab:  Solving for h, Initial residual = 0.000022, Final residual = 0.000000, No Iterations 1
min/max(T) = 291.000000, 1884.699263
DICPCG:  Solving for p, Initial residual = 0.008194, Final residual = 0.000006, No Iterations 2
diagonal:  Solving for rho, Initial residual = 0.000000, Final residual = 0.000000, No Iterations 0
time step continuity errors : sum local = 0.000000, global = 0.000000, cumulative = -0.000000
DICPCG:  Solving for p, Initial residual = 0.004739, Final residual = 0.000000, No Iterations 3
diagonal:  Solving for rho, Initial residual = 0.000000, Final residual = 0.000000, No Iterations 0
time step continuity errors : sum local = 0.000000, global = 0.000000, cumulative = -0.000000
DILUPBiCGStab:  Solving for epsilon, Initial residual = 0.000003, Final residual = 0.000000, No Iterations 1
DILUPBiCGStab:  Solving for k, Initial residual = 0.000001, Final residual = 0.000000, No Iterations 1
ExecutionTime = 0.573264 s  ClockTime = 0 s

Courant Number mean: 0.001141 max: 0.081088
deltaT = 0.000007
Time = 3.858050224e-05s

diagonal:  Solving for rho, Initial residual = 0.000000, Final residual = 0.000000, No Iterations 0
DILUPBiCGStab:  Solving for Ux, Initial residual = 0.003821, Final residual = 0.000001, No Iterations 1
DILUPBiCGStab:  Solving for Uy, Initial residual = 0.000176, Final residual = 0.000000, No Iterations 1
DILUPBiCGStab:  Solving for Uz, Initial residual = 0.000005, Final residual = 0.000000, No Iterations 1

CCM status
====================================
  acceleration ratio    phase space size     Unbalance ratio
               15.34                 337                0.23
====================================

CCM Solve Function Timing Analysis:
====================================
                     Step     Time(s)   Percent      Max(s)      Min(s)
           Initialization    0.000145     0.82%    0.000146    0.000144
            Cell_Grouping    0.003088    17.54%    0.003096    0.003052
             Distribution    0.000288     1.63%    0.000288    0.000288
                  Merging    0.000036     0.20%    0.000036    0.000035
         Post_merge_Total    0.000002     0.02%    0.000003    0.000002
        Reduce_PhaseSpace    0.000004     0.02%    0.000004    0.000004
    Reduce_UnbalanceRatio    0.000003     0.02%    0.000003    0.000003
        Reduce_TotalCells    0.000003     0.02%    0.000003    0.000003
         Debug_Operations    0.000003     0.02%    0.000004    0.000003
    Chemistry_Computation    0.013616    77.31%    0.013640    0.013497
               Comm_Setup    0.000002     0.01%    0.000003    0.000002
  Hash_Table_Construction    0.000033     0.19%    0.000033    0.000033
  Communication_Execution    0.000230     1.30%    0.000230    0.000229
          Rate_Assignment    0.000154     0.87%    0.000155    0.000154
       Cleanup_Statistics    0.000003     0.02%    0.000004    0.000003
====================================
                    Total    0.017643  100.00%

DILUPBiCGStab:  Solving for H2, Initial residual = 0.000090, Final residual = 0.000000, No Iterations 1
DILUPBiCGStab:  Solving for H, Initial residual = 0.001281, Final residual = 0.000000, No Iterations 1
DILUPBiCGStab:  Solving for O, Initial residual = 0.000362, Final residual = 0.000000, No Iterations 1
DILUPBiCGStab:  Solving for O2, Initial residual = 0.000006, Final residual = 0.000000, No Iterations 1
DILUPBiCGStab:  Solving for OH, Initial residual = 0.001110, Final residual = 0.000000, No Iterations 1
DILUPBiCGStab:  Solving for H2O, Initial residual = 0.000018, Final residual = 0.000000, No Iterations 1
DILUPBiCGStab:  Solving for HO2, Initial residual = 0.009350, Final residual = 0.000003, No Iterations 1
DILUPBiCGStab:  Solving for H2O2, Initial residual = 0.007449, Final residual = 0.000003, No Iterations 1
DILUPBiCGStab:  Solving for C, Initial residual = 0.000937, Final residual = 0.000000, No Iterations 1
DILUPBiCGStab:  Solving for CH, Initial residual = 0.000981, Final residual = 0.000000, No Iterations 1
DILUPBiCGStab:  Solving for CH2, Initial residual = 0.002508, Final residual = 0.000001, No Iterations 1
DILUPBiCGStab:  Solving for CH2(S), Initial residual = 0.002172, Final residual = 0.000000, No Iterations 1
DILUPBiCGStab:  Solving for CH3, Initial residual = 0.000802, Final residual = 0.000000, No Iterations 1
DILUPBiCGStab:  Solving for CH4, Initial residual = 0.000002, Final residual = 0.000000, No Iterations 1
DILUPBiCGStab:  Solving for CO, Initial residual = 0.000078, Final residual = 0.000000, No Iterations 1
DILUPBiCGStab:  Solving for CO2, Initial residual = 0.000002, Final residual = 0.000000, No Iterations 1
DILUPBiCGStab:  Solving for HCO, Initial residual = 0.000953, Final residual = 0.000000, No Iterations 1
DILUPBiCGStab:  Solving for CH2O, Initial residual = 0.001764, Final residual = 0.000001, No Iterations 1
DILUPBiCGStab:  Solving for CH2OH, Initial residual = 0.001265, Final residual = 0.000000, No Iterations 1
DILUPBiCGStab:  Solving for CH3O, Initial residual = 0.000902, Final residual = 0.000000, No Iterations 1
DILUPBiCGStab:  Solving for CH3OH, Initial residual = 0.002691, Final residual = 0.000001, No Iterations 1
DILUPBiCGStab:  Solving for C2H, Initial residual = 0.000806, Final residual = 0.000000, No Iterations 1
DILUPBiCGStab:  Solving for C2H2, Initial residual = 0.000684, Final residual = 0.000000, No Iterations 1
DILUPBiCGStab:  Solving for C2H3, Initial residual = 0.000375, Final residual = 0.000000, No Iterations 1
DILUPBiCGStab:  Solving for C2H4, Initial residual = 0.000362, Final residual = 0.000000, No Iterations 1
DILUPBiCGStab:  Solving for C2H5, Initial residual = 0.000387, Final residual = 0.000000, No Iterations 1
DILUPBiCGStab:  Solving for C2H6, Initial residual = 0.000343, Final residual = 0.000000, No Iterations 1
DILUPBiCGStab:  Solving for HCCO, Initial residual = 0.000629, Final residual = 0.000000, No Iterations 1
DILUPBiCGStab:  Solving for CH2CO, Initial residual = 0.000596, Final residual = 0.000000, No Iterations 1
DILUPBiCGStab:  Solving for HCCOH, Initial residual = 0.000696, Final residual = 0.000000, No Iterations 1
DILUPBiCGStab:  Solving for AR, Initial residual = 0.000000, Final residual = 0.000000, No Iterations 0
DILUPBiCGStab:  Solving for C3H7, Initial residual = 0.000279, Final residual = 0.000000, No Iterations 1
DILUPBiCGStab:  Solving for C3H8, Initial residual = 0.000264, Final residual = 0.000000, No Iterations 1
DILUPBiCGStab:  Solving for CH2CHO, Initial residual = 0.000491, Final residual = 0.000000, No Iterations 1
DILUPBiCGStab:  Solving for CH3CHO, Initial residual = 0.000375, Final residual = 0.000000, No Iterations 1
DILUPBiCGStab:  Solving for h, Initial residual = 0.000022, Final residual = 0.000000, No Iterations 1
min/max(T) = 291.000000, 1886.040297
DICPCG:  Solving for p, Initial residual = 0.008385, Final residual = 0.000012, No Iterations 2
diagonal:  Solving for rho, Initial residual = 0.000000, Final residual = 0.000000, No Iterations 0
time step continuity errors : sum local = 0.000000, global = 0.000000, cumulative = -0.000000
DICPCG:  Solving for p, Initial residual = 0.004931, Final residual = 0.000001, No Iterations 3
diagonal:  Solving for rho, Initial residual = 0.000000, Final residual = 0.000000, No Iterations 0
time step continuity errors : sum local = 0.000000, global = 0.000000, cumulative = -0.000000
DILUPBiCGStab:  Solving for epsilon, Initial residual = 0.000003, Final residual = 0.000000, No Iterations 1
DILUPBiCGStab:  Solving for k, Initial residual = 0.000002, Final residual = 0.000000, No Iterations 1
ExecutionTime = 0.620470 s  ClockTime = 0 s

Courant Number mean: 0.001370 max: 0.110213
deltaT = 0.000009
Time = 4.749660269e-05s

diagonal:  Solving for rho, Initial residual = 0.000000, Final residual = 0.000000, No Iterations 0
DILUPBiCGStab:  Solving for Ux, Initial residual = 0.004515, Final residual = 0.000001, No Iterations 1
DILUPBiCGStab:  Solving for Uy, Initial residual = 0.000212, Final residual = 0.000000, No Iterations 1
DILUPBiCGStab:  Solving for Uz, Initial residual = 0.000006, Final residual = 0.000000, No Iterations 1

CCM status
====================================
  acceleration ratio    phase space size     Unbalance ratio
               14.81                 349                0.19
====================================

CCM Solve Function Timing Analysis:
====================================
                     Step     Time(s)   Percent      Max(s)      Min(s)
           Initialization    0.000189     1.01%    0.000189    0.000188
            Cell_Grouping    0.002886    15.43%    0.002887    0.002885
             Distribution    0.000328     1.76%    0.000329    0.000327
                  Merging    0.000028     0.15%    0.000028    0.000027
         Post_merge_Total    0.000002     0.01%    0.000002    0.000002
        Reduce_PhaseSpace    0.000005     0.03%    0.000006    0.000005
    Reduce_UnbalanceRatio    0.000003     0.02%    0.000004    0.000003
        Reduce_TotalCells    0.000002     0.01%    0.000003    0.000002
         Debug_Operations    0.000005     0.02%    0.000012    0.000002
    Chemistry_Computation    0.014876    79.35%    0.014886    0.014843
               Comm_Setup    0.000003     0.02%    0.000003    0.000002
[...]
DILUPBiCGStab:  Solving for Ux, Initial residual = 0.001261, Final residual = 0.000001, No Iterations 1
DILUPBiCGStab:  Solving for Uy, Initial residual = 0.000581, Final residual = 0.000000, No Iterations 1
DILUPBiCGStab:  Solving for Uz, Initial residual = 0.000054, Final residual = 0.000000, No Iterations 1

CCM status
====================================
  acceleration ratio    phase space size     Unbalance ratio
                9.56                 541                0.10
====================================

CCM Solve Function Timing Analysis:
====================================
                     Step     Time(s)   Percent      Max(s)      Min(s)
           Initialization    0.000208     0.34%    0.000208    0.000207
            Cell_Grouping    0.008178     6.82%    0.009233    0.004166
             Distribution    0.000463     0.76%    0.000463    0.000462
                  Merging    0.000043     0.07%    0.000043    0.000042
         Post_merge_Total    0.000002     0.00%    0.000002    0.000002
        Reduce_PhaseSpace    0.000012     0.02%    0.000014    0.000004
    Reduce_UnbalanceRatio    0.000004     0.01%    0.000004    0.000003
        Reduce_TotalCells    0.000003     0.00%    0.000003    0.000002
         Debug_Operations    0.000030     0.01%    0.000052    0.000006
    Chemistry_Computation    0.067960    90.70%    0.072829    0.055367
               Comm_Setup    0.000009     0.01%    0.000012    0.000008
  Hash_Table_Construction    0.000133     0.21%    0.000137    0.000130
  Communication_Execution    0.000396     0.65%    0.000397    0.000395
          Rate_Assignment    0.000227     0.37%    0.000228    0.000227
       Cleanup_Statistics    0.000005     0.01%    0.000005    0.000004
====================================
                    Total    0.061043  100.00%

DILUPBiCGStab:  Solving for H2, Initial residual = 0.000035, Final residual = 0.000000, No Iterations 1
DILUPBiCGStab:  Solving for H, Initial residual = 0.000040, Final residual = 0.000000, No Iterations 1
DILUPBiCGStab:  Solving for O, Initial residual = 0.000046, Final residual = 0.000000, No Iterations 1
DILUPBiCGStab:  Solving for O2, Initial residual = 0.000019, Final residual = 0.000000, No Iterations 1
DILUPBiCGStab:  Solving for OH, Initial residual = 0.000029, Final residual = 0.000000, No Iterations 1
DILUPBiCGStab:  Solving for H2O, Initial residual = 0.000024, Final residual = 0.000000, No Iterations 1
DILUPBiCGStab:  Solving for HO2, Initial residual = 0.000235, Final residual = 0.000001, No Iterations 1
DILUPBiCGStab:  Solving for H2O2, Initial residual = 0.000062, Final residual = 0.000000, No Iterations 1
DILUPBiCGStab:  Solving for C, Initial residual = 0.000170, Final residual = 0.000001, No Iterations 1
DILUPBiCGStab:  Solving for CH, Initial residual = 0.000156, Final residual = 0.000001, No Iterations 1
DILUPBiCGStab:  Solving for CH2, Initial residual = 0.000067, Final residual = 0.000000, No Iterations 1
DILUPBiCGStab:  Solving for CH2(S), Initial residual = 0.000088, Final residual = 0.000001, No Iterations 1
DILUPBiCGStab:  Solving for CH3, Initial residual = 0.000044, Final residual = 0.000000, No Iterations 1
DILUPBiCGStab:  Solving for CH4, Initial residual = 0.000005, Final residual = 0.000000, No Iterations 1
DILUPBiCGStab:  Solving for CO, Initial residual = 0.000042, Final residual = 0.000000, No Iterations 1
DILUPBiCGStab:  Solving for CO2, Initial residual = 0.000022, Final residual = 0.000000, No Iterations 1
DILUPBiCGStab:  Solving for HCO, Initial residual = 0.000118, Final residual = 0.000001, No Iterations 1
DILUPBiCGStab:  Solving for CH2O, Initial residual = 0.000063, Final residual = 0.000000, No Iterations 1
DILUPBiCGStab:  Solving for CH2OH, Initial residual = 0.000079, Final residual = 0.000000, No Iterations 1
DILUPBiCGStab:  Solving for CH3O, Initial residual = 0.000329, Final residual = 0.000001, No Iterations 1
DILUPBiCGStab:  Solving for CH3OH, Initial residual = 0.000048, Final residual = 0.000000, No Iterations 1
DILUPBiCGStab:  Solving for C2H, Initial residual = 0.000063, Final residual = 0.000000, No Iterations 1
DILUPBiCGStab:  Solving for C2H2, Initial residual = 0.000031, Final residual = 0.000000, No Iterations 1
DILUPBiCGStab:  Solving for C2H3, Initial residual = 0.000043, Final residual = 0.000000, No Iterations 1
DILUPBiCGStab:  Solving for C2H4, Initial residual = 0.000038, Final residual = 0.000000, No Iterations 1
DILUPBiCGStab:  Solving for C2H5, Initial residual = 0.000100, Final residual = 0.000000, No Iterations 1
DILUPBiCGStab:  Solving for C2H6, Initial residual = 0.000040, Final residual = 0.000000, No Iterations 1
DILUPBiCGStab:  Solving for HCCO, Initial residual = 0.000037, Final residual = 0.000000, No Iterations 1
DILUPBiCGStab:  Solving for CH2CO, Initial residual = 0.000038, Final residual = 0.000000, No Iterations 1
DILUPBiCGStab:  Solving for HCCOH, Initial residual = 0.000024, Final residual = 0.000000, No Iterations 1
DILUPBiCGStab:  Solving for AR, Initial residual = 0.000000, Final residual = 0.000000, No Iterations 0
DILUPBiCGStab:  Solving for C3H7, Initial residual = 0.000174, Final residual = 0.000001, No Iterations 1
DILUPBiCGStab:  Solving for C3H8, Initial residual = 0.000069, Final residual = 0.000000, No Iterations 1
DILUPBiCGStab:  Solving for CH2CHO, Initial residual = 0.000229, Final residual = 0.000001, No Iterations 1
DILUPBiCGStab:  Solving for CH3CHO, Initial residual = 0.000120, Final residual = 0.000001, No Iterations 1
DILUPBiCGStab:  Solving for h, Initial residual = 0.000024, Final residual = 0.000000, No Iterations 1
min/max(T) = 291.000000, 1977.142061
DICPCG:  Solving for p, Initial residual = 0.008673, Final residual = 0.000047, No Iterations 6
diagonal:  Solving for rho, Initial residual = 0.000000, Final residual = 0.000000, No Iterations 0
time step continuity errors : sum local = 0.000000, global = 0.000000, cumulative = -0.000000
DICPCG:  Solving for p, Initial residual = 0.005244, Final residual = 0.000001, No Iterations 11
diagonal:  Solving for rho, Initial residual = 0.000000, Final residual = 0.000000, No Iterations 0
time step continuity errors : sum local = 0.000000, global = 0.000000, cumulative = -0.000000
DILUPBiCGStab:  Solving for epsilon, Initial residual = 0.000021, Final residual = 0.000000, No Iterations 1
DILUPBiCGStab:  Solving for k, Initial residual = 0.000022, Final residual = 0.000000, No Iterations 1
ExecutionTime = 44.502942 s  ClockTime = 47 s

Courant Number mean: 0.008620 max: 0.599851
deltaT = 0.000043
Time = 0.02495553772s

diagonal:  Solving for rho, Initial residual = 0.000000, Final residual = 0.000000, No Iterations 0
DILUPBiCGStab:  Solving for Ux, Initial residual = 0.001240, Final residual = 0.000001, No Iterations 1
DILUPBiCGStab:  Solving for Uy, Initial residual = 0.000574, Final residual = 0.000000, No Iterations 1
DILUPBiCGStab:  Solving for Uz, Initial residual = 0.000053, Final residual = 0.000000, No Iterations 1

CCM status
====================================
  acceleration ratio    phase space size     Unbalance ratio
                9.54                 542                0.10
====================================

CCM Solve Function Timing Analysis:
====================================
                     Step     Time(s)   Percent      Max(s)      Min(s)
           Initialization    0.000235     0.46%    0.000235    0.000234
            Cell_Grouping    0.006298     5.41%    0.007002    0.002784
             Distribution    0.000449     0.87%    0.000450    0.000449
                  Merging    0.000042     0.08%    0.000043    0.000042
         Post_merge_Total    0.000002     0.00%    0.000002    0.000002
        Reduce_PhaseSpace    0.000004     0.01%    0.000004    0.000004
    Reduce_UnbalanceRatio    0.000004     0.01%    0.000004    0.000003
        Reduce_TotalCells    0.000003     0.01%    0.000003    0.000002
         Debug_Operations    0.000009     0.02%    0.000011    0.000007
    Chemistry_Computation    0.060265    91.49%    0.065038    0.047051
               Comm_Setup    0.000005     0.01%    0.000006    0.000003
  Hash_Table_Construction    0.000116     0.22%    0.000116    0.000115
  Communication_Execution    0.000352     0.68%    0.000353    0.000352
          Rate_Assignment    0.000325     0.71%    0.000370    0.000207
       Cleanup_Statistics    0.000007     0.01%    0.000008    0.000006
====================================
                    Total    0.051429  100.00%

DILUPBiCGStab:  Solving for H2, Initial residual = 0.000035, Final residual = 0.000000, No Iterations 1
DILUPBiCGStab:  Solving for H, Initial residual = 0.000035, Final residual = 0.000000, No Iterations 1
DILUPBiCGStab:  Solving for O, Initial residual = 0.000043, Final residual = 0.000000, No Iterations 1
DILUPBiCGStab:  Solving for O2, Initial residual = 0.000019, Final residual = 0.000000, No Iterations 1
DILUPBiCGStab:  Solving for OH, Initial residual = 0.000026, Final residual = 0.000000, No Iterations 1
DILUPBiCGStab:  Solving for H2O, Initial residual = 0.000024, Final residual = 0.000000, No Iterations 1
DILUPBiCGStab:  Solving for HO2, Initial residual = 0.000234, Final residual = 0.000001, No Iterations 1
DILUPBiCGStab:  Solving for H2O2, Initial residual = 0.000063, Final residual = 0.000000, No Iterations 1
DILUPBiCGStab:  Solving for C, Initial residual = 0.000169, Final residual = 0.000001, No Iterations 1
DILUPBiCGStab:  Solving for CH, Initial residual = 0.000096, Final residual = 0.000001, No Iterations 1
DILUPBiCGStab:  Solving for CH2, Initial residual = 0.000039, Final residual = 0.000000, No Iterations 1
DILUPBiCGStab:  Solving for CH2(S), Initial residual = 0.000049, Final residual = 0.000000, No Iterations 1
DILUPBiCGStab:  Solving for CH3, Initial residual = 0.000045, Final residual = 0.000000, No Iterations 1
DILUPBiCGStab:  Solving for CH4, Initial residual = 0.000005, Final residual = 0.000000, No Iterations 1
DILUPBiCGStab:  Solving for CO, Initial residual = 0.000041, Final residual = 0.000000, No Iterations 1
DILUPBiCGStab:  Solving for CO2, Initial residual = 0.000022, Final residual = 0.000000, No Iterations 1
DILUPBiCGStab:  Solving for HCO, Initial residual = 0.000065, Final residual = 0.000000, No Iterations 1
DILUPBiCGStab:  Solving for CH2O, Initial residual = 0.000062, Final residual = 0.000000, No Iterations 1
DILUPBiCGStab:  Solving for CH2OH, Initial residual = 0.000039, Final residual = 0.000000, No Iterations 1
DILUPBiCGStab:  Solving for CH3O, Initial residual = 0.000322, Final residual = 0.000001, No Iterations 1
DILUPBiCGStab:  Solving for CH3OH, Initial residual = 0.000048, Final residual = 0.000000, No Iterations 1
DILUPBiCGStab:  Solving for C2H, Initial residual = 0.000050, Final residual = 0.000000, No Iterations 1
DILUPBiCGStab:  Solving for C2H2, Initial residual = 0.000031, Final residual = 0.000000, No Iterations 1
DILUPBiCGStab:  Solving for C2H3, Initial residual = 0.000029, Final residual = 0.000000, No Iterations 1
DILUPBiCGStab:  Solving for C2H4, Initial residual = 0.000039, Final residual = 0.000000, No Iterations 1
DILUPBiCGStab:  Solving for C2H5, Initial residual = 0.000104, Final residual = 0.000001, No Iterations 1
DILUPBiCGStab:  Solving for C2H6, Initial residual = 0.000040, Final residual = 0.000000, No Iterations 1
DILUPBiCGStab:  Solving for HCCO, Initial residual = 0.000021, Final residual = 0.000000, No Iterations 1
DILUPBiCGStab:  Solving for CH2CO, Initial residual = 0.000037, Final residual = 0.000000, No Iterations 1
DILUPBiCGStab:  Solving for HCCOH, Initial residual = 0.000023, Final residual = 0.000000, No Iterations 1
DILUPBiCGStab:  Solving for AR, Initial residual = 0.000000, Final residual = 0.000000, No Iterations 0
DILUPBiCGStab:  Solving for C3H7, Initial residual = 0.000170, Final residual = 0.000001, No Iterations 1
DILUPBiCGStab:  Solving for C3H8, Initial residual = 0.000069, Final residual = 0.000000, No Iterations 1
DILUPBiCGStab:  Solving for CH2CHO, Initial residual = 0.000233, Final residual = 0.000001, No Iterations 1
DILUPBiCGStab:  Solving for CH3CHO, Initial residual = 0.000123, Final residual = 0.000001, No Iterations 1
DILUPBiCGStab:  Solving for h, Initial residual = 0.000024, Final residual = 0.000000, No Iterations 1
min/max(T) = 291.000000, 1977.440285
DICPCG:  Solving for p, Initial residual = 0.008871, Final residual = 0.000080, No Iterations 5
diagonal:  Solving for rho, Initial residual = 0.000000, Final residual = 0.000000, No Iterations 0
time step continuity errors : sum local = 0.000000, global = -0.000000, cumulative = -0.000000
DICPCG:  Solving for p, Initial residual = 0.005377, Final residual = 0.000001, No Iterations 11
diagonal:  Solving for rho, Initial residual = 0.000000, Final residual = 0.000000, No Iterations 0
time step continuity errors : sum local = 0.000000, global = 0.000000, cumulative = -0.000000
DILUPBiCGStab:  Solving for epsilon, Initial residual = 0.000021, Final residual = 0.000000, No Iterations 1
DILUPBiCGStab:  Solving for k, Initial residual = 0.000022, Final residual = 0.000000, No Iterations 1
ExecutionTime = 44.595371 s  ClockTime = 48 s

Courant Number mean: 0.008622 max: 0.600198
deltaT = 0.000043
Time = 0.02499901733s

diagonal:  Solving for rho, Initial residual = 0.000000, Final residual = 0.000000, No Iterations 0
DILUPBiCGStab:  Solving for Ux, Initial residual = 0.001214, Final residual = 0.000001, No Iterations 1
DILUPBiCGStab:  Solving for Uy, Initial residual = 0.000581, Final residual = 0.000000, No Iterations 1
DILUPBiCGStab:  Solving for Uz, Initial residual = 0.000053, Final residual = 0.000000, No Iterations 1

CCM status
====================================
  acceleration ratio    phase space size     Unbalance ratio
                9.56                 541                0.11
====================================

CCM Solve Function Timing Analysis:
====================================
                     Step     Time(s)   Percent      Max(s)      Min(s)
           Initialization    0.000295     0.47%    0.000296    0.000295
            Cell_Grouping    0.005209     8.96%    0.005657    0.004296
             Distribution    0.000523     0.83%    0.000525    0.000522
                  Merging    0.000074     0.12%    0.000075    0.000074
         Post_merge_Total    0.000002     0.00%    0.000003    0.000002
        Reduce_PhaseSpace    0.000005     0.01%    0.000005    0.000004
    Reduce_UnbalanceRatio    0.000005     0.01%    0.000005    0.000005
        Reduce_TotalCells    0.000004     0.01%    0.000005    0.000003
         Debug_Operations    0.000006     0.01%    0.000008    0.000005
    Chemistry_Computation    0.059315    88.12%    0.065246    0.053503
               Comm_Setup    0.000007     0.01%    0.000009    0.000006
  Hash_Table_Construction    0.000225     0.36%    0.000228    0.000214
  Communication_Execution    0.000486     0.77%    0.000487    0.000485
          Rate_Assignment    0.000202     0.32%    0.000204    0.000201
       Cleanup_Statistics    0.000004     0.01%    0.000004    0.000004
====================================
                    Total    0.063159  100.00%

DILUPBiCGStab:  Solving for H2, Initial residual = 0.000036, Final residual = 0.000000, No Iterations 1
DILUPBiCGStab:  Solving for H, Initial residual = 0.000037, Final residual = 0.000000, No Iterations 1
DILUPBiCGStab:  Solving for O, Initial residual = 0.000041, Final residual = 0.000000, No Iterations 1
DILUPBiCGStab:  Solving for O2, Initial residual = 0.000019, Final residual = 0.000000, No Iterations 1
DILUPBiCGStab:  Solving for OH, Initial residual = 0.000025, Final residual = 0.000000, No Iterations 1
DILUPBiCGStab:  Solving for H2O, Initial residual = 0.000024, Final residual = 0.000000, No Iterations 1
DILUPBiCGStab:  Solving for HO2, Initial residual = 0.000222, Final residual = 0.000001, No Iterations 1
DILUPBiCGStab:  Solving for H2O2, Initial residual = 0.000063, Final residual = 0.000000, No Iterations 1
DILUPBiCGStab:  Solving for C, Initial residual = 0.000356, Final residual = 0.000002, No Iterations 1
DILUPBiCGStab:  Solving for CH, Initial residual = 0.000141, Final residual = 0.000001, No Iterations 1
DILUPBiCGStab:  Solving for CH2, Initial residual = 0.000047, Final residual = 0.000000, No Iterations 1
DILUPBiCGStab:  Solving for CH2(S), Initial residual = 0.000058, Final residual = 0.000000, No Iterations 1
DILUPBiCGStab:  Solving for CH3, Initial residual = 0.000046, Final residual = 0.000000, No Iterations 1
DILUPBiCGStab:  Solving for CH4, Initial residual = 0.000005, Final residual = 0.000000, No Iterations 1
DILUPBiCGStab:  Solving for CO, Initial residual = 0.000040, Final residual = 0.000000, No Iterations 1
DILUPBiCGStab:  Solving for CO2, Initial residual = 0.000022, Final residual = 0.000000, No Iterations 1
DILUPBiCGStab:  Solving for HCO, Initial residual = 0.000086, Final residual = 0.000000, No Iterations 1
DILUPBiCGStab:  Solving for CH2O, Initial residual = 0.000062, Final residual = 0.000000, No Iterations 1
DILUPBiCGStab:  Solving for CH2OH, Initial residual = 0.000049, Final residual = 0.000000, No Iterations 1
DILUPBiCGStab:  Solving for CH3O, Initial residual = 0.000279, Final residual = 0.000001, No Iterations 1
DILUPBiCGStab:  Solving for CH3OH, Initial residual = 0.000049, Final residual = 0.000000, No Iterations 1
DILUPBiCGStab:  Solving for C2H, Initial residual = 0.000075, Final residual = 0.000000, No Iterations 1
DILUPBiCGStab:  Solving for C2H2, Initial residual = 0.000031, Final residual = 0.000000, No Iterations 1
DILUPBiCGStab:  Solving for C2H3, Initial residual = 0.000030, Final residual = 0.000000, No Iterations 1
DILUPBiCGStab:  Solving for C2H4, Initial residual = 0.000040, Final residual = 0.000000, No Iterations 1
DILUPBiCGStab:  Solving for C2H5, Initial residual = 0.000100, Final residual = 0.000000, No Iterations 1
DILUPBiCGStab:  Solving for C2H6, Initial residual = 0.000040, Final residual = 0.000000, No Iterations 1
DILUPBiCGStab:  Solving for HCCO, Initial residual = 0.000029, Final residual = 0.000000, No Iterations 1
DILUPBiCGStab:  Solving for CH2CO, Initial residual = 0.000038, Final residual = 0.000000, No Iterations 1
DILUPBiCGStab:  Solving for HCCOH, Initial residual = 0.000025, Final residual = 0.000000, No Iterations 1
DILUPBiCGStab:  Solving for AR, Initial residual = 0.000000, Final residual = 0.000000, No Iterations 0
DILUPBiCGStab:  Solving for C3H7, Initial residual = 0.000150, Final residual = 0.000001, No Iterations 1
DILUPBiCGStab:  Solving for C3H8, Initial residual = 0.000066, Final residual = 0.000000, No Iterations 1
DILUPBiCGStab:  Solving for CH2CHO, Initial residual = 0.000217, Final residual = 0.000001, No Iterations 1
DILUPBiCGStab:  Solving for CH3CHO, Initial residual = 0.000125, Final residual = 0.000001, No Iterations 1
DILUPBiCGStab:  Solving for h, Initial residual = 0.000023, Final residual = 0.000000, No Iterations 1
min/max(T) = 291.000000, 1977.732890
DICPCG:  Solving for p, Initial residual = 0.009181, Final residual = 0.000077, No Iterations 5
diagonal:  Solving for rho, Initial residual = 0.000000, Final residual = 0.000000, No Iterations 0
time step continuity errors : sum local = 0.000000, global = -0.000000, cumulative = -0.000000
DICPCG:  Solving for p, Initial residual = 0.005550, Final residual = 0.000001, No Iterations 11
diagonal:  Solving for rho, Initial residual = 0.000000, Final residual = 0.000000, No Iterations 0
time step continuity errors : sum local = 0.000000, global = -0.000000, cumulative = -0.000000
DILUPBiCGStab:  Solving for epsilon, Initial residual = 0.000021, Final residual = 0.000000, No Iterations 1
DILUPBiCGStab:  Solving for k, Initial residual = 0.000022, Final residual = 0.000000, No Iterations 1
ExecutionTime = 44.804290 s  ClockTime = 48 s

End

Finalising parallel run
