/*---------------------------------------------------------------------------*\
  =========                 |
  \\      /  F ield         | OpenFOAM: The Open Source CFD Toolbox
   \\    /   O peration     | Website:  https://openfoam.org
    \\  /    A nd           | Version:  10
     \\/     M anipulation  |
\*---------------------------------------------------------------------------*/
Build  : 10-89f925dc708d
Exec   : reactingFoam -parallel -fileHandler collated
Date   : Nov 04 2025
Time   : 22:19:59
Host   : "zhouyuchen-System-Product-Name"
PID    : 56267
I/O    : collated (maxThreadFileBufferSize 2e+09)
         Threading activated since maxThreadFileBufferSize > 0.
         Requires large enough buffer to collect all data or thread support 
         enabled in MPI. If thread support cannot be enabled, deactivate
         threading by setting maxThreadFileBufferSize to 0 in
         $FOAM_ETC/controlDict
Case   : /home/zhouyuchen/Desktop/FastChemistrySolver-OpenFOAM-10/EC-CCM/OpenFOAM-10/Sandia
nProcs : 6
Slaves : 
5
(
"zhouyuchen-System-Product-Name.56268"
"zhouyuchen-System-Product-Name.56269"
"zhouyuchen-System-Product-Name.56270"
"zhouyuchen-System-Product-Name.56271"
"zhouyuchen-System-Product-Name.56272"
)

Pstream initialised with:
    floatTransfer      : 0
    nProcsSimpleSum    : 0
    commsType          : nonBlocking
    polling iterations : 0
sigFpe : Enabling floating point exception trapping (FOAM_SIGFPE).
fileModificationChecking : Monitoring run-time modified files using timeStamp (fileModificationSkew 10)
allowSystemOperations : Allowing user-supplied system call operations

// * * * * * * * * * * * * * * * * * * * * * * * * * * * * * * * * * * * * * //
Create time

Create mesh for time = 0


PIMPLE: No convergence criteria found


PIMPLE: Operating solver in transient mode with 1 outer corrector
PIMPLE: Operating solver in PISO mode


Reading thermophysical properties

Selecting thermodynamics package 
{
    type            hePsiThermo;
    mixture         multiComponentMixture;
    transport       sutherland;
    thermo          janaf;
    energy          sensibleEnthalpy;
    equationOfState perfectGas;
    specie          specie;
}

--> FOAM Warning : 
    From function const Foam::entry* Foam::dictionary::lookupEntryPtrBackwardsCompatible(const wordList&, bool, bool) const
    in file db/dictionary/dictionary.C at line 802
    Reading "/home/zhouyuchen/Desktop/FastChemistrySolver-OpenFOAM-10/EC-CCM/OpenFOAM-10/Sandia/constant/thermophysicalProperties" from line 20 to line 1390
    Duplicate backwards compatible keywords "defaultSpecie" and "inertSpecie" are defined in dictionary "/home/zhouyuchen/Desktop/FastChemistrySolver-OpenFOAM-10/EC-CCM/OpenFOAM-10/Sandia/constant/thermophysicalProperties"
The preferred keyword for this entry is "defaultSpecie"
Reading field U

Reading/calculating face flux field phi

Creating turbulence model.

Selecting turbulence model type RAS
Selecting RAS turbulence model kEpsilon
RAS
{
    RASModel        kEpsilon;
    turbulence      on;
    printCoeffs     on;
    Cmu             0.09;
    C1              1.44;
    C2              1.92;
    C3              0;
    sigmak          1;
    sigmaEps        1.3;
}

Creating thermophysical transport model

Selecting thermophysical transport type RAS
Selecting default RAS thermophysical transport model unityLewisEddyDiffusivity
Creating reaction model

Selecting combustion model laminar
Selecting chemistry solver 
{
    solver          ode;
    method          CCM;
}

CCModeChemistryModel: Number of species = 36
No chemistry tabulation method selected
Selecting chemistry solver 
{
    solver          OptSeulex;
    method          FastChemistryModel;
}

Looking for: OptSeulex<FastChemistryModel>
Available solvers in table: 
3
(
OptRodas34<FastChemistryModel>
OptRosenbrock34<FastChemistryModel>
OptSeulex<FastChemistryModel>
)

The default specie is N2
FastChemistryModel: Number of species = 36 and reactions = 219
Using correct scalar dissipation rate
Using the equivalence ratio that will change during the combustion process
Using optimized targeted communication pattern
Principal variables: T CH3OH HO2 H2O2 CH4 CH2OH C CH2 HCO HCCO OH O CH3O 
Regular variables: 
Variables to be update: 
#====== CCM Information ======#

Principal variables: T CH3OH HO2 H2O2 CH4 CH2OH C CH2 HCO HCCO OH O CH3O 
Regular variables: 
Variables to be update: 
nSlice: 50
ignoreMin: 1e-06
Error control variables(ecVars_): T 

CCM Variable Analysis:
====================================
       Variable   Min Value   Max Value
              T  2.9100e+02  1.8800e+03
          CH3OH  0.0000e+00  0.0000e+00
            HO2  0.0000e+00  0.0000e+00
           H2O2  0.0000e+00  0.0000e+00
            CH4  1.5875e-44  1.5610e-01
          CH2OH  0.0000e+00  0.0000e+00
              C  0.0000e+00  0.0000e+00
            CH2  0.0000e+00  0.0000e+00
            HCO  0.0000e+00  0.0000e+00
           HCCO  0.0000e+00  0.0000e+00
             OH  2.8113e-60  2.8000e-03
              O  7.5002e-61  7.4700e-04
           CH3O  0.0000e+00  0.0000e+00
#====== CCM Information ======#
CCMchemistryModel: Number of species = 36 and reactions = 219
Global communicator
Hash tables pre-allocated with capacity: 1024 (contact cores: 6, local RR: 2048)
Selecting ODE solver seulex
    using integrated reaction rate
Creating field dpdt

Creating field kinetic energy K

No MRF models present

No fvModels present
No fvConstraints present
Courant Number mean: 1.8406e-04 max: 1.2868e-02

Starting time loop

Courant Number mean: 1.8406e-04 max: 1.2868e-02
deltaT = 1.2000e-06
Time = 1.2e-06s

diagonal:  Solving for rho, Initial residual = 0.0000e+00, Final residual = 0.0000e+00, No Iterations 0
DILUPBiCGStab:  Solving for Ux, Initial residual = 9.8211e-07, Final residual = 9.8211e-07, No Iterations 0
DILUPBiCGStab:  Solving for Uy, Initial residual = 3.9067e-05, Final residual = 1.0126e-09, No Iterations 1
DILUPBiCGStab:  Solving for Uz, Initial residual = 2.4500e-08, Final residual = 2.4500e-08, No Iterations 0

CCM status
====================================
  acceleration ratio    phase space size     Unbalance ratio
               26.93                 192                0.21
====================================

CCM Solve Function Timing Analysis:
====================================
                     Step     Time(s)   Percent      Max(s)      Min(s)
           Initialization    0.000103     1.33%    0.000108    0.000102
            Cell_Grouping    0.001783    22.77%    0.001784    0.001783
             Distribution    0.000210     2.68%    0.000210    0.000209
                  Merging    0.000021     0.27%    0.000022    0.000021
         Post_merge_Total    0.000002     0.03%    0.000002    0.000001
        Reduce_PhaseSpace    0.000010     0.13%    0.000010    0.000010
    Reduce_UnbalanceRatio    0.000003     0.04%    0.000003    0.000002
        Reduce_TotalCells    0.000002     0.03%    0.000002    0.000002
         Debug_Operations    0.000003     0.04%    0.000003    0.000002
    Chemistry_Computation    0.005426    69.26%    0.005428    0.005424
               Comm_Setup    0.000002     0.03%    0.000003    0.000002
  Hash_Table_Construction    0.000017     0.22%    0.000017    0.000017
  Communication_Execution    0.000143     1.83%    0.000143    0.000142
          Rate_Assignment    0.000103     1.33%    0.000104    0.000103
       Cleanup_Statistics    0.000002     0.04%    0.000003    0.000002
====================================
                    Total    0.007831  100.00%

DILUPBiCGStab:  Solving for H2, Initial residual = 0.000045, Final residual = 0.000000, No Iterations 1
DILUPBiCGStab:  Solving for H, Initial residual = 0.013804, Final residual = 0.000002, No Iterations 1
DILUPBiCGStab:  Solving for O, Initial residual = 0.000206, Final residual = 0.000000, No Iterations 1
DILUPBiCGStab:  Solving for O2, Initial residual = 0.000041, Final residual = 0.000000, No Iterations 1
DILUPBiCGStab:  Solving for OH, Initial residual = 0.000631, Final residual = 0.000000, No Iterations 1
DILUPBiCGStab:  Solving for H2O, Initial residual = 0.000013, Final residual = 0.000000, No Iterations 1
DILUPBiCGStab:  Solving for HO2, Initial residual = 1.000000, Final residual = 0.000143, No Iterations 1
DILUPBiCGStab:  Solving for H2O2, Initial residual = 1.000000, Final residual = 0.000126, No Iterations 1
DILUPBiCGStab:  Solving for C, Initial residual = 1.000000, Final residual = 0.000006, No Iterations 1
DILUPBiCGStab:  Solving for CH, Initial residual = 1.000000, Final residual = 0.000008, No Iterations 1
DILUPBiCGStab:  Solving for CH2, Initial residual = 1.000000, Final residual = 0.000039, No Iterations 1
DILUPBiCGStab:  Solving for CH2(S), Initial residual = 1.000000, Final residual = 0.000035, No Iterations 1
DILUPBiCGStab:  Solving for CH3, Initial residual = 1.000000, Final residual = 0.000055, No Iterations 1
DILUPBiCGStab:  Solving for CH4, Initial residual = 0.000002, Final residual = 0.000000, No Iterations 1
DILUPBiCGStab:  Solving for CO, Initial residual = 0.000026, Final residual = 0.000000, No Iterations 1
DILUPBiCGStab:  Solving for CO2, Initial residual = 0.000001, Final residual = 0.000000, No Iterations 1
DILUPBiCGStab:  Solving for HCO, Initial residual = 1.000000, Final residual = 0.000014, No Iterations 1
DILUPBiCGStab:  Solving for CH2O, Initial residual = 1.000000, Final residual = 0.000038, No Iterations 1
DILUPBiCGStab:  Solving for CH2OH, Initial residual = 1.000000, Final residual = 0.000015, No Iterations 1
DILUPBiCGStab:  Solving for CH3O, Initial residual = 1.000000, Final residual = 0.000060, No Iterations 1
DILUPBiCGStab:  Solving for CH3OH, Initial residual = 1.000000, Final residual = 0.000068, No Iterations 1
DILUPBiCGStab:  Solving for C2H, Initial residual = 1.000000, Final residual = 0.000010, No Iterations 1
DILUPBiCGStab:  Solving for C2H2, Initial residual = 1.000000, Final residual = 0.000011, No Iterations 1
DILUPBiCGStab:  Solving for C2H3, Initial residual = 1.000000, Final residual = 0.000011, No Iterations 1
DILUPBiCGStab:  Solving for C2H4, Initial residual = 1.000000, Final residual = 0.000018, No Iterations 1
DILUPBiCGStab:  Solving for C2H5, Initial residual = 1.000000, Final residual = 0.000016, No Iterations 1
DILUPBiCGStab:  Solving for C2H6, Initial residual = 1.000000, Final residual = 0.000025, No Iterations 1
DILUPBiCGStab:  Solving for HCCO, Initial residual = 1.000000, Final residual = 0.000010, No Iterations 1
DILUPBiCGStab:  Solving for CH2CO, Initial residual = 1.000000, Final residual = 0.000015, No Iterations 1
DILUPBiCGStab:  Solving for HCCOH, Initial residual = 1.000000, Final residual = 0.000010, No Iterations 1
DILUPBiCGStab:  Solving for AR, Initial residual = 0.000000, Final residual = 0.000000, No Iterations 0
DILUPBiCGStab:  Solving for C3H7, Initial residual = 1.000000, Final residual = 0.000016, No Iterations 1
DILUPBiCGStab:  Solving for C3H8, Initial residual = 1.000000, Final residual = 0.000018, No Iterations 1
DILUPBiCGStab:  Solving for CH2CHO, Initial residual = 1.000000, Final residual = 0.000016, No Iterations 1
DILUPBiCGStab:  Solving for CH3CHO, Initial residual = 1.000000, Final residual = 0.000015, No Iterations 1
DILUPBiCGStab:  Solving for h, Initial residual = 0.000044, Final residual = 0.000000, No Iterations 1
min/max(T) = 291.000000, 1880.231780
DICPCG:  Solving for p, Initial residual = 0.094790, Final residual = 0.000199, No Iterations 1
diagonal:  Solving for rho, Initial residual = 0.000000, Final residual = 0.000000, No Iterations 0
time step continuity errors : sum local = 0.000000, global = -0.000000, cumulative = -0.000000
DICPCG:  Solving for p, Initial residual = 0.032264, Final residual = 0.000000, No Iterations 3
diagonal:  Solving for rho, Initial residual = 0.000000, Final residual = 0.000000, No Iterations 0
time step continuity errors : sum local = 0.000000, global = -0.000000, cumulative = -0.000000
DILUPBiCGStab:  Solving for epsilon, Initial residual = 0.000000, Final residual = 0.000000, No Iterations 0
DILUPBiCGStab:  Solving for k, Initial residual = 0.000000, Final residual = 0.000000, No Iterations 0
ExecutionTime = 0.085466 s  ClockTime = 0 s

Courant Number mean: 0.000221 max: 0.014557
deltaT = 0.000001
Time = 2.64e-06s

diagonal:  Solving for rho, Initial residual = 0.000000, Final residual = 0.000000, No Iterations 0
DILUPBiCGStab:  Solving for Ux, Initial residual = 0.000195, Final residual = 0.000000, No Iterations 1
DILUPBiCGStab:  Solving for Uy, Initial residual = 0.000038, Final residual = 0.000000, No Iterations 1
DILUPBiCGStab:  Solving for Uz, Initial residual = 0.000000, Final residual = 0.000000, No Iterations 0

CCM status
====================================
  acceleration ratio    phase space size     Unbalance ratio
               19.51                 265                0.13
====================================

CCM Solve Function Timing Analysis:
====================================
                     Step     Time(s)   Percent      Max(s)      Min(s)
           Initialization    0.000099     2.08%    0.000099    0.000097
            Cell_Grouping    0.001768    37.21%    0.001768    0.001767
             Distribution    0.000179     3.79%    0.000180    0.000178
                  Merging    0.000016     0.34%    0.000016    0.000016
         Post_merge_Total    0.000002     0.04%    0.000002    0.000001
        Reduce_PhaseSpace    0.000003     0.08%    0.000004    0.000003
    Reduce_UnbalanceRatio    0.000002     0.04%    0.000002    0.000002
        Reduce_TotalCells    0.000002     0.04%    0.000003    0.000002
         Debug_Operations    0.000002     0.04%    0.000003    0.000002
    Chemistry_Computation    0.002465    51.90%    0.002466    0.002465
               Comm_Setup    0.000002     0.04%    0.000002    0.000002
  Hash_Table_Construction    0.000016     0.36%    0.000017    0.000016
  Communication_Execution    0.000115     2.44%    0.000116    0.000115
          Rate_Assignment    0.000073     1.54%    0.000073    0.000073
       Cleanup_Statistics    0.000002     0.04%    0.000003    0.000002
====================================
                    Total    0.004751  100.00%

DILUPBiCGStab:  Solving for H2, Initial residual = 0.000047, Final residual = 0.000000, No Iterations 1
DILUPBiCGStab:  Solving for H, Initial residual = 0.009103, Final residual = 0.000001, No Iterations 1
DILUPBiCGStab:  Solving for O, Initial residual = 0.000179, Final residual = 0.000000, No Iterations 1
DILUPBiCGStab:  Solving for O2, Initial residual = 0.000025, Final residual = 0.000000, No Iterations 1
DILUPBiCGStab:  Solving for OH, Initial residual = 0.000626, Final residual = 0.000000, No Iterations 1
DILUPBiCGStab:  Solving for H2O, Initial residual = 0.000012, Final residual = 0.000000, No Iterations 1
DILUPBiCGStab:  Solving for HO2, Initial residual = 0.042153, Final residual = 0.000003, No Iterations 1
DILUPBiCGStab:  Solving for H2O2, Initial residual = 0.035705, Final residual = 0.000003, No Iterations 1
DILUPBiCGStab:  Solving for C, Initial residual = 0.001250, Final residual = 0.000000, No Iterations 1
DILUPBiCGStab:  Solving for CH, Initial residual = 0.001196, Final residual = 0.000000, No Iterations 1
DILUPBiCGStab:  Solving for CH2, Initial residual = 0.002114, Final residual = 0.000000, No Iterations 1
DILUPBiCGStab:  Solving for CH2(S), Initial residual = 0.001897, Final residual = 0.000000, No Iterations 1
DILUPBiCGStab:  Solving for CH3, Initial residual = 0.004046, Final residual = 0.000000, No Iterations 1
DILUPBiCGStab:  Solving for CH4, Initial residual = 0.000001, Final residual = 0.000000, No Iterations 1
DILUPBiCGStab:  Solving for CO, Initial residual = 0.000030, Final residual = 0.000000, No Iterations 1
DILUPBiCGStab:  Solving for CO2, Initial residual = 0.000001, Final residual = 0.000000, No Iterations 1
DILUPBiCGStab:  Solving for HCO, Initial residual = 0.001807, Final residual = 0.000000, No Iterations 1
DILUPBiCGStab:  Solving for CH2O, Initial residual = 0.004309, Final residual = 0.000000, No Iterations 1
DILUPBiCGStab:  Solving for CH2OH, Initial residual = 0.001521, Final residual = 0.000000, No Iterations 1
DILUPBiCGStab:  Solving for CH3O, Initial residual = 0.008251, Final residual = 0.000000, No Iterations 1
DILUPBiCGStab:  Solving for CH3OH, Initial residual = 0.007591, Final residual = 0.000000, No Iterations 1
DILUPBiCGStab:  Solving for C2H, Initial residual = 0.002867, Final residual = 0.000000, No Iterations 1
DILUPBiCGStab:  Solving for C2H2, Initial residual = 0.003545, Final residual = 0.000000, No Iterations 1
DILUPBiCGStab:  Solving for C2H3, Initial residual = 0.002082, Final residual = 0.000000, No Iterations 1
DILUPBiCGStab:  Solving for C2H4, Initial residual = 0.002772, Final residual = 0.000000, No Iterations 1
DILUPBiCGStab:  Solving for C2H5, Initial residual = 0.002947, Final residual = 0.000000, No Iterations 1
DILUPBiCGStab:  Solving for C2H6, Initial residual = 0.003713, Final residual = 0.000000, No Iterations 1
DILUPBiCGStab:  Solving for HCCO, Initial residual = 0.004096, Final residual = 0.000000, No Iterations 1
DILUPBiCGStab:  Solving for CH2CO, Initial residual = 0.004724, Final residual = 0.000000, No Iterations 1
DILUPBiCGStab:  Solving for HCCOH, Initial residual = 0.006642, Final residual = 0.000000, No Iterations 1
DILUPBiCGStab:  Solving for AR, Initial residual = 0.000000, Final residual = 0.000000, No Iterations 0
DILUPBiCGStab:  Solving for C3H7, Initial residual = 0.005507, Final residual = 0.000000, No Iterations 1
DILUPBiCGStab:  Solving for C3H8, Initial residual = 0.006984, Final residual = 0.000000, No Iterations 1
DILUPBiCGStab:  Solving for CH2CHO, Initial residual = 0.002795, Final residual = 0.000000, No Iterations 1
DILUPBiCGStab:  Solving for CH3CHO, Initial residual = 0.005036, Final residual = 0.000000, No Iterations 1
DILUPBiCGStab:  Solving for h, Initial residual = 0.000034, Final residual = 0.000000, No Iterations 1
min/max(T) = 291.000000, 1880.500441
DICPCG:  Solving for p, Initial residual = 0.021864, Final residual = 0.000012, No Iterations 1
diagonal:  Solving for rho, Initial residual = 0.000000, Final residual = 0.000000, No Iterations 0
time step continuity errors : sum local = 0.000000, global = 0.000000, cumulative = -0.000000
DICPCG:  Solving for p, Initial residual = 0.010711, Final residual = 0.000000, No Iterations 2
diagonal:  Solving for rho, Initial residual = 0.000000, Final residual = 0.000000, No Iterations 0
time step continuity errors : sum local = 0.000000, global = 0.000000, cumulative = -0.000000
DILUPBiCGStab:  Solving for epsilon, Initial residual = 0.000000, Final residual = 0.000000, No Iterations 0
DILUPBiCGStab:  Solving for k, Initial residual = 0.000000, Final residual = 0.000000, No Iterations 0
ExecutionTime = 0.106164 s  ClockTime = 0 s

Courant Number mean: 0.000265 max: 0.017454
deltaT = 0.000002
Time = 4.368e-06s

diagonal:  Solving for rho, Initial residual = 0.000000, Final residual = 0.000000, No Iterations 0
DILUPBiCGStab:  Solving for Ux, Initial residual = 0.000350, Final residual = 0.000000, No Iterations 1
DILUPBiCGStab:  Solving for Uy, Initial residual = 0.000040, Final residual = 0.000000, No Iterations 1
DILUPBiCGStab:  Solving for Uz, Initial residual = 0.000000, Final residual = 0.000000, No Iterations 0

CCM status
====================================
  acceleration ratio    phase space size     Unbalance ratio
               18.27                 283                0.19
====================================

CCM Solve Function Timing Analysis:
====================================
                     Step     Time(s)   Percent      Max(s)      Min(s)
           Initialization    0.000103     2.15%    0.000103    0.000103
            Cell_Grouping    0.002296    48.01%    0.002300    0.002280
             Distribution    0.000185     3.86%    0.000185    0.000184
                  Merging    0.000022     0.46%    0.000022    0.000021
         Post_merge_Total    0.000001     0.02%    0.000002    0.000001
        Reduce_PhaseSpace    0.000004     0.06%    0.000004    0.000003
    Reduce_UnbalanceRatio    0.000003     0.06%    0.000003    0.000002
        Reduce_TotalCells    0.000002     0.04%    0.000003    0.000002
         Debug_Operations    0.000003     0.06%    0.000003    0.000002
    Chemistry_Computation    0.001936    40.45%    0.001937    0.001935
               Comm_Setup    0.000003     0.08%    0.000004    0.000001
  Hash_Table_Construction    0.000019     0.38%    0.000019    0.000018
  Communication_Execution    0.000131     2.74%    0.000132    0.000131
          Rate_Assignment    0.000076     1.59%    0.000077    0.000076
       Cleanup_Statistics    0.000002     0.04%    0.000003    0.000002
====================================
                    Total    0.004789  100.00%

DILUPBiCGStab:  Solving for H2, Initial residual = 0.000046, Final residual = 0.000000, No Iterations 1
DILUPBiCGStab:  Solving for H, Initial residual = 0.004182, Final residual = 0.000000, No Iterations 1
DILUPBiCGStab:  Solving for O, Initial residual = 0.000146, Final residual = 0.000000, No Iterations 1
DILUPBiCGStab:  Solving for O2, Initial residual = 0.000010, Final residual = 0.000000, No Iterations 1
DILUPBiCGStab:  Solving for OH, Initial residual = 0.000578, Final residual = 0.000000, No Iterations 1
DILUPBiCGStab:  Solving for H2O, Initial residual = 0.000011, Final residual = 0.000000, No Iterations 1
DILUPBiCGStab:  Solving for HO2, Initial residual = 0.010081, Final residual = 0.000000, No Iterations 1
DILUPBiCGStab:  Solving for H2O2, Initial residual = 0.018015, Final residual = 0.000002, No Iterations 1
DILUPBiCGStab:  Solving for C, Initial residual = 0.000510, Final residual = 0.000000, No Iterations 1
DILUPBiCGStab:  Solving for CH, Initial residual = 0.000651, Final residual = 0.000000, No Iterations 1
DILUPBiCGStab:  Solving for CH2, Initial residual = 0.001175, Final residual = 0.000000, No Iterations 1
DILUPBiCGStab:  Solving for CH2(S), Initial residual = 0.001124, Final residual = 0.000000, No Iterations 1
DILUPBiCGStab:  Solving for CH3, Initial residual = 0.001103, Final residual = 0.000000, No Iterations 1
DILUPBiCGStab:  Solving for CH4, Initial residual = 0.000001, Final residual = 0.000000, No Iterations 1
DILUPBiCGStab:  Solving for CO, Initial residual = 0.000034, Final residual = 0.000000, No Iterations 1
DILUPBiCGStab:  Solving for CO2, Initial residual = 0.000001, Final residual = 0.000000, No Iterations 1
DILUPBiCGStab:  Solving for HCO, Initial residual = 0.000726, Final residual = 0.000000, No Iterations 1
DILUPBiCGStab:  Solving for CH2O, Initial residual = 0.002348, Final residual = 0.000000, No Iterations 1
DILUPBiCGStab:  Solving for CH2OH, Initial residual = 0.000686, Final residual = 0.000000, No Iterations 1
DILUPBiCGStab:  Solving for CH3O, Initial residual = 0.005787, Final residual = 0.000000, No Iterations 1
DILUPBiCGStab:  Solving for CH3OH, Initial residual = 0.004820, Final residual = 0.000000, No Iterations 1
DILUPBiCGStab:  Solving for C2H, Initial residual = 0.001654, Final residual = 0.000000, No Iterations 1
DILUPBiCGStab:  Solving for C2H2, Initial residual = 0.001872, Final residual = 0.000000, No Iterations 1
DILUPBiCGStab:  Solving for C2H3, Initial residual = 0.000657, Final residual = 0.000000, No Iterations 1
DILUPBiCGStab:  Solving for C2H4, Initial residual = 0.001122, Final residual = 0.000000, No Iterations 1
DILUPBiCGStab:  Solving for C2H5, Initial residual = 0.001218, Final residual = 0.000000, No Iterations 1
DILUPBiCGStab:  Solving for C2H6, Initial residual = 0.002254, Final residual = 0.000000, No Iterations 1
DILUPBiCGStab:  Solving for HCCO, Initial residual = 0.002275, Final residual = 0.000000, No Iterations 1
DILUPBiCGStab:  Solving for CH2CO, Initial residual = 0.002435, Final residual = 0.000000, No Iterations 1
DILUPBiCGStab:  Solving for HCCOH, Initial residual = 0.003642, Final residual = 0.000000, No Iterations 1
DILUPBiCGStab:  Solving for AR, Initial residual = 0.000000, Final residual = 0.000000, No Iterations 0
DILUPBiCGStab:  Solving for C3H7, Initial residual = 0.002299, Final residual = 0.000000, No Iterations 1
DILUPBiCGStab:  Solving for C3H8, Initial residual = 0.004005, Final residual = 0.000000, No Iterations 1
DILUPBiCGStab:  Solving for CH2CHO, Initial residual = 0.000859, Final residual = 0.000000, No Iterations 1
DILUPBiCGStab:  Solving for CH3CHO, Initial residual = 0.002221, Final residual = 0.000000, No Iterations 1
DILUPBiCGStab:  Solving for h, Initial residual = 0.000016, Final residual = 0.000000, No Iterations 1
min/max(T) = 291.000000, 1880.810149
DICPCG:  Solving for p, Initial residual = 0.005355, Final residual = 0.000005, No Iterations 1
diagonal:  Solving for rho, Initial residual = 0.000000, Final residual = 0.000000, No Iterations 0
time step continuity errors : sum local = 0.000000, global = -0.000000, cumulative = -0.000000
DICPCG:  Solving for p, Initial residual = 0.003011, Final residual = 0.000000, No Iterations 2
diagonal:  Solving for rho, Initial residual = 0.000000, Final residual = 0.000000, No Iterations 0
time step continuity errors : sum local = 0.000000, global = 0.000000, cumulative = -0.000000
DILUPBiCGStab:  Solving for epsilon, Initial residual = 0.000000, Final residual = 0.000000, No Iterations 0
DILUPBiCGStab:  Solving for k, Initial residual = 0.000000, Final residual = 0.000000, No Iterations 0
ExecutionTime = 0.126661 s  ClockTime = 0 s

Courant Number mean: 0.000318 max: 0.020910
deltaT = 0.000002
Time = 6.4416e-06s

diagonal:  Solving for rho, Initial residual = 0.000000, Final residual = 0.000000, No Iterations 0
DILUPBiCGStab:  Solving for Ux, Initial residual = 0.000494, Final residual = 0.000000, No Iterations 1
DILUPBiCGStab:  Solving for Uy, Initial residual = 0.000050, Final residual = 0.000000, No Iterations 1
DILUPBiCGStab:  Solving for Uz, Initial residual = 0.000001, Final residual = 0.000001, No Iterations 0

CCM status
====================================
  acceleration ratio    phase space size     Unbalance ratio
               17.18                 301                0.06
====================================

CCM Solve Function Timing Analysis:
====================================
                     Step     Time(s)   Percent      Max(s)      Min(s)
           Initialization    0.000116     2.83%    0.000117    0.000116
            Cell_Grouping    0.001937    47.25%    0.001938    0.001936
             Distribution    0.000193     4.71%    0.000194    0.000193
                  Merging    0.000023     0.59%    0.000024    0.000023
         Post_merge_Total    0.000002     0.05%    0.000002    0.000001
        Reduce_PhaseSpace    0.000003     0.10%    0.000004    0.000003
    Reduce_UnbalanceRatio    0.000002     0.07%    0.000003    0.000002
        Reduce_TotalCells    0.000002     0.05%    0.000003    0.000002
         Debug_Operations    0.000002     0.07%    0.000003    0.000002
    Chemistry_Computation    0.001558    38.03%    0.001558    0.001558
               Comm_Setup    0.000002     0.05%    0.000002    0.000002
  Hash_Table_Construction    0.000019     0.49%    0.000020    0.000018
  Communication_Execution    0.000149     3.64%    0.000149    0.000149
          Rate_Assignment    0.000083     2.03%    0.000083    0.000083
       Cleanup_Statistics    0.000002     0.05%    0.000003    0.000002
====================================
                    Total    0.004097  100.00%

DILUPBiCGStab:  Solving for H2, Initial residual = 0.000048, Final residual = 0.000000, No Iterations 1
DILUPBiCGStab:  Solving for H, Initial residual = 0.003529, Final residual = 0.000000, No Iterations 1
DILUPBiCGStab:  Solving for O, Initial residual = 0.000172, Final residual = 0.000000, No Iterations 1
DILUPBiCGStab:  Solving for O2, Initial residual = 0.000008, Final residual = 0.000000, No Iterations 1
DILUPBiCGStab:  Solving for OH, Initial residual = 0.000685, Final residual = 0.000000, No Iterations 1
DILUPBiCGStab:  Solving for H2O, Initial residual = 0.000013, Final residual = 0.000000, No Iterations 1
DILUPBiCGStab:  Solving for HO2, Initial residual = 0.008470, Final residual = 0.000000, No Iterations 1
DILUPBiCGStab:  Solving for H2O2, Initial residual = 0.015374, Final residual = 0.000002, No Iterations 1
DILUPBiCGStab:  Solving for C, Initial residual = 0.000363, Final residual = 0.000000, No Iterations 1
DILUPBiCGStab:  Solving for CH, Initial residual = 0.000556, Final residual = 0.000000, No Iterations 1
DILUPBiCGStab:  Solving for CH2, Initial residual = 0.001235, Final residual = 0.000000, No Iterations 1
DILUPBiCGStab:  Solving for CH2(S), Initial residual = 0.001192, Final residual = 0.000000, No Iterations 1
DILUPBiCGStab:  Solving for CH3, Initial residual = 0.001054, Final residual = 0.000000, No Iterations 1
DILUPBiCGStab:  Solving for CH4, Initial residual = 0.000001, Final residual = 0.000000, No Iterations 1
DILUPBiCGStab:  Solving for CO, Initial residual = 0.000039, Final residual = 0.000000, No Iterations 1
DILUPBiCGStab:  Solving for CO2, Initial residual = 0.000001, Final residual = 0.000000, No Iterations 1
DILUPBiCGStab:  Solving for HCO, Initial residual = 0.000587, Final residual = 0.000000, No Iterations 1
DILUPBiCGStab:  Solving for CH2O, Initial residual = 0.001993, Final residual = 0.000000, No Iterations 1
DILUPBiCGStab:  Solving for CH2OH, Initial residual = 0.000694, Final residual = 0.000000, No Iterations 1
DILUPBiCGStab:  Solving for CH3O, Initial residual = 0.003998, Final residual = 0.000000, No Iterations 1
DILUPBiCGStab:  Solving for CH3OH, Initial residual = 0.003973, Final residual = 0.000000, No Iterations 1
DILUPBiCGStab:  Solving for C2H, Initial residual = 0.001449, Final residual = 0.000000, No Iterations 1
DILUPBiCGStab:  Solving for C2H2, Initial residual = 0.001194, Final residual = 0.000000, No Iterations 1
DILUPBiCGStab:  Solving for C2H3, Initial residual = 0.000412, Final residual = 0.000000, No Iterations 1
DILUPBiCGStab:  Solving for C2H4, Initial residual = 0.000788, Final residual = 0.000000, No Iterations 1
DILUPBiCGStab:  Solving for C2H5, Initial residual = 0.000625, Final residual = 0.000000, No Iterations 1
DILUPBiCGStab:  Solving for C2H6, Initial residual = 0.001545, Final residual = 0.000000, No Iterations 1
DILUPBiCGStab:  Solving for HCCO, Initial residual = 0.001493, Final residual = 0.000000, No Iterations 1
DILUPBiCGStab:  Solving for CH2CO, Initial residual = 0.001432, Final residual = 0.000000, No Iterations 1
DILUPBiCGStab:  Solving for HCCOH, Initial residual = 0.002358, Final residual = 0.000000, No Iterations 1
DILUPBiCGStab:  Solving for AR, Initial residual = 0.000000, Final residual = 0.000000, No Iterations 0
DILUPBiCGStab:  Solving for C3H7, Initial residual = 0.000945, Final residual = 0.000000, No Iterations 1
DILUPBiCGStab:  Solving for C3H8, Initial residual = 0.002197, Final residual = 0.000000, No Iterations 1
DILUPBiCGStab:  Solving for CH2CHO, Initial residual = 0.000634, Final residual = 0.000000, No Iterations 1
DILUPBiCGStab:  Solving for CH3CHO, Initial residual = 0.001112, Final residual = 0.000000, No Iterations 1
DILUPBiCGStab:  Solving for h, Initial residual = 0.000019, Final residual = 0.000000, No Iterations 1
min/max(T) = 291.000000, 1881.187001
DICPCG:  Solving for p, Initial residual = 0.015528, Final residual = 0.000020, No Iterations 1
diagonal:  Solving for rho, Initial residual = 0.000000, Final residual = 0.000000, No Iterations 0
time step continuity errors : sum local = 0.000000, global = -0.000000, cumulative = -0.000000
DICPCG:  Solving for p, Initial residual = 0.008117, Final residual = 0.000000, No Iterations 2
diagonal:  Solving for rho, Initial residual = 0.000000, Final residual = 0.000000, No Iterations 0
time step continuity errors : sum local = 0.000000, global = 0.000000, cumulative = -0.000000
DILUPBiCGStab:  Solving for epsilon, Initial residual = 0.000000, Final residual = 0.000000, No Iterations 0
DILUPBiCGStab:  Solving for k, Initial residual = 0.000000, Final residual = 0.000000, No Iterations 0
ExecutionTime = 0.146560 s  ClockTime = 0 s

Courant Number mean: 0.000381 max: 0.025055
deltaT = 0.000002
Time = 8.92992e-06s

diagonal:  Solving for rho, Initial residual = 0.000000, Final residual = 0.000000, No Iterations 0
DILUPBiCGStab:  Solving for Ux, Initial residual = 0.000740, Final residual = 0.000000, No Iterations 1
DILUPBiCGStab:  Solving for Uy, Initial residual = 0.000059, Final residual = 0.000000, No Iterations 1
DILUPBiCGStab:  Solving for Uz, Initial residual = 0.000001, Final residual = 0.000001, No Iterations 0

CCM status
====================================
  acceleration ratio    phase space size     Unbalance ratio
               16.41                 315                0.21
====================================

CCM Solve Function Timing Analysis:
====================================
                     Step     Time(s)   Percent      Max(s)      Min(s)
           Initialization    0.000114     2.72%    0.000114    0.000113
            Cell_Grouping    0.001771    42.27%    0.001771    0.001770
             Distribution    0.000198     4.73%    0.000198    0.000197
                  Merging    0.000022     0.53%    0.000022    0.000022
         Post_merge_Total    0.000002     0.02%    0.000002    0.000001
        Reduce_PhaseSpace    0.000004     0.10%    0.000004    0.000003
    Reduce_UnbalanceRatio    0.000002     0.07%    0.000003    0.000002
        Reduce_TotalCells    0.000002     0.05%    0.000002    0.000002
         Debug_Operations    0.000003     0.05%    0.000003    0.000002
    Chemistry_Computation    0.001829    43.65%    0.001829    0.001829
               Comm_Setup    0.000002     0.05%    0.000002    0.000001
  Hash_Table_Construction    0.000021     0.48%    0.000021    0.000020
  Communication_Execution    0.000150     3.58%    0.000150    0.000150
          Rate_Assignment    0.000070     1.67%    0.000070    0.000070
       Cleanup_Statistics    0.000002     0.05%    0.000003    0.000002
====================================
                    Total    0.004190  100.00%

DILUPBiCGStab:  Solving for H2, Initial residual = 0.000049, Final residual = 0.000000, No Iterations 1
DILUPBiCGStab:  Solving for H, Initial residual = 0.002182, Final residual = 0.000000, No Iterations 1
DILUPBiCGStab:  Solving for O, Initial residual = 0.000182, Final residual = 0.000000, No Iterations 1
DILUPBiCGStab:  Solving for O2, Initial residual = 0.000007, Final residual = 0.000000, No Iterations 1
DILUPBiCGStab:  Solving for OH, Initial residual = 0.000742, Final residual = 0.000000, No Iterations 1
DILUPBiCGStab:  Solving for H2O, Initial residual = 0.000013, Final residual = 0.000000, No Iterations 1
DILUPBiCGStab:  Solving for HO2, Initial residual = 0.007649, Final residual = 0.000000, No Iterations 1
DILUPBiCGStab:  Solving for H2O2, Initial residual = 0.012819, Final residual = 0.000002, No Iterations 1
DILUPBiCGStab:  Solving for C, Initial residual = 0.000939, Final residual = 0.000000, No Iterations 1
DILUPBiCGStab:  Solving for CH, Initial residual = 0.000926, Final residual = 0.000000, No Iterations 1
DILUPBiCGStab:  Solving for CH2, Initial residual = 0.001267, Final residual = 0.000000, No Iterations 1
DILUPBiCGStab:  Solving for CH2(S), Initial residual = 0.001232, Final residual = 0.000000, No Iterations 1
DILUPBiCGStab:  Solving for CH3, Initial residual = 0.000923, Final residual = 0.000000, No Iterations 1
DILUPBiCGStab:  Solving for CH4, Initial residual = 0.000001, Final residual = 0.000000, No Iterations 1
DILUPBiCGStab:  Solving for CO, Initial residual = 0.000043, Final residual = 0.000000, No Iterations 1
DILUPBiCGStab:  Solving for CO2, Initial residual = 0.000001, Final residual = 0.000000, No Iterations 1
DILUPBiCGStab:  Solving for HCO, Initial residual = 0.000590, Final residual = 0.000000, No Iterations 1
DILUPBiCGStab:  Solving for CH2O, Initial residual = 0.001774, Final residual = 0.000000, No Iterations 1
DILUPBiCGStab:  Solving for CH2OH, Initial residual = 0.000901, Final residual = 0.000000, No Iterations 1
DILUPBiCGStab:  Solving for CH3O, Initial residual = 0.002784, Final residual = 0.000000, No Iterations 1
DILUPBiCGStab:  Solving for CH3OH, Initial residual = 0.003448, Final residual = 0.000000, No Iterations 1
DILUPBiCGStab:  Solving for C2H, Initial residual = 0.001469, Final residual = 0.000000, No Iterations 1
DILUPBiCGStab:  Solving for C2H2, Initial residual = 0.000998, Final residual = 0.000000, No Iterations 1
DILUPBiCGStab:  Solving for C2H3, Initial residual = 0.000277, Final residual = 0.000000, No Iterations 1
DILUPBiCGStab:  Solving for C2H4, Initial residual = 0.000643, Final residual = 0.000000, No Iterations 1
DILUPBiCGStab:  Solving for C2H5, Initial residual = 0.000318, Final residual = 0.000000, No Iterations 1
DILUPBiCGStab:  Solving for C2H6, Initial residual = 0.001001, Final residual = 0.000000, No Iterations 1
DILUPBiCGStab:  Solving for HCCO, Initial residual = 0.001315, Final residual = 0.000000, No Iterations 1
DILUPBiCGStab:  Solving for CH2CO, Initial residual = 0.001116, Final residual = 0.000000, No Iterations 1
DILUPBiCGStab:  Solving for HCCOH, Initial residual = 0.002101, Final residual = 0.000000, No Iterations 1
DILUPBiCGStab:  Solving for AR, Initial residual = 0.000000, Final residual = 0.000000, No Iterations 0
DILUPBiCGStab:  Solving for C3H7, Initial residual = 0.000631, Final residual = 0.000000, No Iterations 1
DILUPBiCGStab:  Solving for C3H8, Initial residual = 0.001448, Final residual = 0.000000, No Iterations 1
DILUPBiCGStab:  Solving for CH2CHO, Initial residual = 0.000381, Final residual = 0.000000, No Iterations 1
DILUPBiCGStab:  Solving for CH3CHO, Initial residual = 0.000937, Final residual = 0.000000, No Iterations 1
DILUPBiCGStab:  Solving for h, Initial residual = 0.000020, Final residual = 0.000000, No Iterations 1
min/max(T) = 291.000000, 1881.562947
DICPCG:  Solving for p, Initial residual = 0.006766, Final residual = 0.000010, No Iterations 1
diagonal:  Solving for rho, Initial residual = 0.000000, Final residual = 0.000000, No Iterations 0
time step continuity errors : sum local = 0.000000, global = -0.000000, cumulative = -0.000000
DICPCG:  Solving for p, Initial residual = 0.003771, Final residual = 0.000000, No Iterations 2
diagonal:  Solving for rho, Initial residual = 0.000000, Final residual = 0.000000, No Iterations 0
time step continuity errors : sum local = 0.000000, global = 0.000000, cumulative = -0.000000
DILUPBiCGStab:  Solving for epsilon, Initial residual = 0.000001, Final residual = 0.000001, No Iterations 0
DILUPBiCGStab:  Solving for k, Initial residual = 0.000000, Final residual = 0.000000, No Iterations 0
ExecutionTime = 0.167241 s  ClockTime = 0 s

Courant Number mean: 0.000458 max: 0.030073
deltaT = 0.000003
Time = 1.1915904e-05s

diagonal:  Solving for rho, Initial residual = 0.000000, Final residual = 0.000000, No Iterations 0
DILUPBiCGStab:  Solving for Ux, Initial residual = 0.001011, Final residual = 0.000000, No Iterations 1
DILUPBiCGStab:  Solving for Uy, Initial residual = 0.000071, Final residual = 0.000000, No Iterations 1
DILUPBiCGStab:  Solving for Uz, Initial residual = 0.000001, Final residual = 0.000000, No Iterations 1

CCM status
====================================
  acceleration ratio    phase space size     Unbalance ratio
               16.46                 314                0.21
====================================

CCM Solve Function Timing Analysis:
====================================
                     Step     Time(s)   Percent      Max(s)      Min(s)
           Initialization    0.000120     2.81%    0.000121    0.000119
            Cell_Grouping    0.001827    42.71%    0.001827    0.001826
             Distribution    0.000214     5.03%    0.000215    0.000214
                  Merging    0.000028     0.65%    0.000029    0.000028
         Post_merge_Total    0.000002     0.02%    0.000002    0.000001
        Reduce_PhaseSpace    0.000004     0.09%    0.000004    0.000003
    Reduce_UnbalanceRatio    0.000002     0.05%    0.000003    0.000002
        Reduce_TotalCells    0.000002     0.05%    0.000003    0.000002
         Debug_Operations    0.000002     0.05%    0.000003    0.000002
    Chemistry_Computation    0.001814    42.43%    0.001815    0.001813
               Comm_Setup    0.000003     0.05%    0.000005    0.000001
  Hash_Table_Construction    0.000025     0.58%    0.000026    0.000025
  Communication_Execution    0.000153     3.58%    0.000153    0.000152
          Rate_Assignment    0.000078     1.85%    0.000079    0.000078
       Cleanup_Statistics    0.000003     0.07%    0.000003    0.000002
====================================
                    Total    0.004278  100.00%

DILUPBiCGStab:  Solving for H2, Initial residual = 0.000052, Final residual = 0.000000, No Iterations 1
DILUPBiCGStab:  Solving for H, Initial residual = 0.001877, Final residual = 0.000000, No Iterations 1
DILUPBiCGStab:  Solving for O, Initial residual = 0.000198, Final residual = 0.000000, No Iterations 1
DILUPBiCGStab:  Solving for O2, Initial residual = 0.000008, Final residual = 0.000000, No Iterations 1
DILUPBiCGStab:  Solving for OH, Initial residual = 0.000814, Final residual = 0.000000, No Iterations 1
DILUPBiCGStab:  Solving for H2O, Initial residual = 0.000014, Final residual = 0.000000, No Iterations 1
DILUPBiCGStab:  Solving for HO2, Initial residual = 0.009358, Final residual = 0.000001, No Iterations 1
DILUPBiCGStab:  Solving for H2O2, Initial residual = 0.011423, Final residual = 0.000002, No Iterations 1
DILUPBiCGStab:  Solving for C, Initial residual = 0.001249, Final residual = 0.000000, No Iterations 1
DILUPBiCGStab:  Solving for CH, Initial residual = 0.001189, Final residual = 0.000000, No Iterations 1
DILUPBiCGStab:  Solving for CH2, Initial residual = 0.001377, Final residual = 0.000000, No Iterations 1
DILUPBiCGStab:  Solving for CH2(S), Initial residual = 0.001342, Final residual = 0.000000, No Iterations 1
DILUPBiCGStab:  Solving for CH3, Initial residual = 0.000859, Final residual = 0.000000, No Iterations 1
DILUPBiCGStab:  Solving for CH4, Initial residual = 0.000001, Final residual = 0.000000, No Iterations 1
DILUPBiCGStab:  Solving for CO, Initial residual = 0.000048, Final residual = 0.000000, No Iterations 1
DILUPBiCGStab:  Solving for CO2, Initial residual = 0.000001, Final residual = 0.000000, No Iterations 1
DILUPBiCGStab:  Solving for HCO, Initial residual = 0.000794, Final residual = 0.000000, No Iterations 1
DILUPBiCGStab:  Solving for CH2O, Initial residual = 0.001725, Final residual = 0.000000, No Iterations 1
DILUPBiCGStab:  Solving for CH2OH, Initial residual = 0.001096, Final residual = 0.000000, No Iterations 1
DILUPBiCGStab:  Solving for CH3O, Initial residual = 0.002208, Final residual = 0.000000, No Iterations 1
DILUPBiCGStab:  Solving for CH3OH, Initial residual = 0.003198, Final residual = 0.000001, No Iterations 1
DILUPBiCGStab:  Solving for C2H, Initial residual = 0.001225, Final residual = 0.000000, No Iterations 1
DILUPBiCGStab:  Solving for C2H2, Initial residual = 0.000819, Final residual = 0.000000, No Iterations 1
DILUPBiCGStab:  Solving for C2H3, Initial residual = 0.000214, Final residual = 0.000000, No Iterations 1
DILUPBiCGStab:  Solving for C2H4, Initial residual = 0.000551, Final residual = 0.000000, No Iterations 1
DILUPBiCGStab:  Solving for C2H5, Initial residual = 0.000253, Final residual = 0.000000, No Iterations 1
DILUPBiCGStab:  Solving for C2H6, Initial residual = 0.000780, Final residual = 0.000000, No Iterations 1
DILUPBiCGStab:  Solving for HCCO, Initial residual = 0.001098, Final residual = 0.000000, No Iterations 1
DILUPBiCGStab:  Solving for CH2CO, Initial residual = 0.000878, Final residual = 0.000000, No Iterations 1
DILUPBiCGStab:  Solving for HCCOH, Initial residual = 0.001735, Final residual = 0.000000, No Iterations 1
DILUPBiCGStab:  Solving for AR, Initial residual = 0.000000, Final residual = 0.000000, No Iterations 0
DILUPBiCGStab:  Solving for C3H7, Initial residual = 0.000443, Final residual = 0.000000, No Iterations 1
DILUPBiCGStab:  Solving for C3H8, Initial residual = 0.001021, Final residual = 0.000000, No Iterations 1
DILUPBiCGStab:  Solving for CH2CHO, Initial residual = 0.000326, Final residual = 0.000000, No Iterations 1
DILUPBiCGStab:  Solving for CH3CHO, Initial residual = 0.000685, Final residual = 0.000000, No Iterations 1
DILUPBiCGStab:  Solving for h, Initial residual = 0.000018, Final residual = 0.000000, No Iterations 1
min/max(T) = 291.000000, 1881.923391
DICPCG:  Solving for p, Initial residual = 0.009296, Final residual = 0.000022, No Iterations 1
diagonal:  Solving for rho, Initial residual = 0.000000, Final residual = 0.000000, No Iterations 0
time step continuity errors : sum local = 0.000000, global = -0.000000, cumulative = -0.000000
DICPCG:  Solving for p, Initial residual = 0.005122, Final residual = 0.000001, No Iterations 2
diagonal:  Solving for rho, Initial residual = 0.000000, Final residual = 0.000000, No Iterations 0
time step continuity errors : sum local = 0.000000, global = 0.000000, cumulative = -0.000000
DILUPBiCGStab:  Solving for epsilon, Initial residual = 0.000001, Final residual = 0.000001, No Iterations 0
DILUPBiCGStab:  Solving for k, Initial residual = 0.000000, Final residual = 0.000000, No Iterations 0
ExecutionTime = 0.189734 s  ClockTime = 0 s

Courant Number mean: 0.000549 max: 0.036498
deltaT = 0.000004
Time = 1.54990848e-05s

diagonal:  Solving for rho, Initial residual = 0.000000, Final residual = 0.000000, No Iterations 0
DILUPBiCGStab:  Solving for Ux, Initial residual = 0.001399, Final residual = 0.000000, No Iterations 1
DILUPBiCGStab:  Solving for Uy, Initial residual = 0.000085, Final residual = 0.000000, No Iterations 1
DILUPBiCGStab:  Solving for Uz, Initial residual = 0.000002, Final residual = 0.000000, No Iterations 1

CCM status
====================================
  acceleration ratio    phase space size     Unbalance ratio
               15.91                 325                0.20
====================================

CCM Solve Function Timing Analysis:
====================================
                     Step     Time(s)   Percent      Max(s)      Min(s)
           Initialization    0.000113     2.62%    0.000114    0.000113
            Cell_Grouping    0.001879    43.63%    0.001880    0.001879
             Distribution    0.000199     4.62%    0.000199    0.000198
                  Merging    0.000024     0.56%    0.000024    0.000023
         Post_merge_Total    0.000002     0.05%    0.000002    0.000001
        Reduce_PhaseSpace    0.000004     0.07%    0.000004    0.000003
    Reduce_UnbalanceRatio    0.000002     0.05%    0.000003    0.000002
        Reduce_TotalCells    0.000002     0.05%    0.000003    0.000002
         Debug_Operations    0.000002     0.07%    0.000003    0.000001
    Chemistry_Computation    0.001793    41.61%    0.001794    0.001793
               Comm_Setup    0.000001     0.02%    0.000002    0.000001
  Hash_Table_Construction    0.000026     0.60%    0.000026    0.000026
  Communication_Execution    0.000172     3.99%    0.000173    0.000172
          Rate_Assignment    0.000088     2.02%    0.000088    0.000087
       Cleanup_Statistics    0.000002     0.05%    0.000003    0.000002
====================================
                    Total    0.004309  100.00%

DILUPBiCGStab:  Solving for H2, Initial residual = 0.000057, Final residual = 0.000000, No Iterations 1
DILUPBiCGStab:  Solving for H, Initial residual = 0.001694, Final residual = 0.000000, No Iterations 1
DILUPBiCGStab:  Solving for O, Initial residual = 0.000221, Final residual = 0.000000, No Iterations 1
DILUPBiCGStab:  Solving for O2, Initial residual = 0.000007, Final residual = 0.000000, No Iterations 1
DILUPBiCGStab:  Solving for OH, Initial residual = 0.000884, Final residual = 0.000000, No Iterations 1
DILUPBiCGStab:  Solving for H2O, Initial residual = 0.000015, Final residual = 0.000000, No Iterations 1
DILUPBiCGStab:  Solving for HO2, Initial residual = 0.009211, Final residual = 0.000001, No Iterations 1
DILUPBiCGStab:  Solving for H2O2, Initial residual = 0.010332, Final residual = 0.000002, No Iterations 1
DILUPBiCGStab:  Solving for C, Initial residual = 0.000447, Final residual = 0.000000, No Iterations 1
DILUPBiCGStab:  Solving for CH, Initial residual = 0.000517, Final residual = 0.000000, No Iterations 1
DILUPBiCGStab:  Solving for CH2, Initial residual = 0.001179, Final residual = 0.000000, No Iterations 1
DILUPBiCGStab:  Solving for CH2(S), Initial residual = 0.001104, Final residual = 0.000000, No Iterations 1
DILUPBiCGStab:  Solving for CH3, Initial residual = 0.000777, Final residual = 0.000000, No Iterations 1
DILUPBiCGStab:  Solving for CH4, Initial residual = 0.000001, Final residual = 0.000000, No Iterations 1
DILUPBiCGStab:  Solving for CO, Initial residual = 0.000053, Final residual = 0.000000, No Iterations 1
DILUPBiCGStab:  Solving for CO2, Initial residual = 0.000001, Final residual = 0.000000, No Iterations 1
DILUPBiCGStab:  Solving for HCO, Initial residual = 0.000570, Final residual = 0.000000, No Iterations 1
DILUPBiCGStab:  Solving for CH2O, Initial residual = 0.001684, Final residual = 0.000000, No Iterations 1
DILUPBiCGStab:  Solving for CH2OH, Initial residual = 0.000780, Final residual = 0.000000, No Iterations 1
DILUPBiCGStab:  Solving for CH3O, Initial residual = 0.001808, Final residual = 0.000000, No Iterations 1
DILUPBiCGStab:  Solving for CH3OH, Initial residual = 0.003029, Final residual = 0.000001, No Iterations 1
DILUPBiCGStab:  Solving for C2H, Initial residual = 0.000791, Final residual = 0.000000, No Iterations 1
DILUPBiCGStab:  Solving for C2H2, Initial residual = 0.000645, Final residual = 0.000000, No Iterations 1
DILUPBiCGStab:  Solving for C2H3, Initial residual = 0.000057, Final residual = 0.000000, No Iterations 1
DILUPBiCGStab:  Solving for C2H4, Initial residual = 0.000481, Final residual = 0.000000, No Iterations 1
DILUPBiCGStab:  Solving for C2H5, Initial residual = 0.000297, Final residual = 0.000000, No Iterations 1
DILUPBiCGStab:  Solving for C2H6, Initial residual = 0.000625, Final residual = 0.000000, No Iterations 1
DILUPBiCGStab:  Solving for HCCO, Initial residual = 0.000839, Final residual = 0.000000, No Iterations 1
DILUPBiCGStab:  Solving for CH2CO, Initial residual = 0.000711, Final residual = 0.000000, No Iterations 1
DILUPBiCGStab:  Solving for HCCOH, Initial residual = 0.001332, Final residual = 0.000000, No Iterations 1
DILUPBiCGStab:  Solving for AR, Initial residual = 0.000000, Final residual = 0.000000, No Iterations 0
DILUPBiCGStab:  Solving for C3H7, Initial residual = 0.000298, Final residual = 0.000000, No Iterations 1
DILUPBiCGStab:  Solving for C3H8, Initial residual = 0.000751, Final residual = 0.000000, No Iterations 1
DILUPBiCGStab:  Solving for CH2CHO, Initial residual = 0.000304, Final residual = 0.000000, No Iterations 1
DILUPBiCGStab:  Solving for CH3CHO, Initial residual = 0.000526, Final residual = 0.000000, No Iterations 1
DILUPBiCGStab:  Solving for h, Initial residual = 0.000020, Final residual = 0.000000, No Iterations 1
min/max(T) = 291.000000, 1882.311074
DICPCG:  Solving for p, Initial residual = 0.008059, Final residual = 0.000029, No Iterations 1
diagonal:  Solving for rho, Initial residual = 0.000000, Final residual = 0.000000, No Iterations 0
time step continuity errors : sum local = 0.000000, global = -0.000000, cumulative = -0.000000
DICPCG:  Solving for p, Initial residual = 0.004526, Final residual = 0.000001, No Iterations 2
diagonal:  Solving for rho, Initial residual = 0.000000, Final residual = 0.000000, No Iterations 0
time step continuity errors : sum local = 0.000000, global = 0.000000, cumulative = -0.000000
DILUPBiCGStab:  Solving for epsilon, Initial residual = 0.000001, Final residual = 0.000000, No Iterations 1
DILUPBiCGStab:  Solving for k, Initial residual = 0.000001, Final residual = 0.000001, No Iterations 0
ExecutionTime = 0.210767 s  ClockTime = 0 s

Courant Number mean: 0.000659 max: 0.044447
deltaT = 0.000004
Time = 1.979890176e-05s

diagonal:  Solving for rho, Initial residual = 0.000000, Final residual = 0.000000, No Iterations 0
DILUPBiCGStab:  Solving for Ux, Initial residual = 0.001816, Final residual = 0.000000, No Iterations 1
DILUPBiCGStab:  Solving for Uy, Initial residual = 0.000102, Final residual = 0.000000, No Iterations 1
DILUPBiCGStab:  Solving for Uz, Initial residual = 0.000002, Final residual = 0.000000, No Iterations 1

CCM status
====================================
  acceleration ratio    phase space size     Unbalance ratio
               15.67                 330                0.23
====================================

CCM Solve Function Timing Analysis:
====================================
                     Step     Time(s)   Percent      Max(s)      Min(s)
           Initialization    0.000136     2.98%    0.000137    0.000135
            Cell_Grouping    0.001887    41.38%    0.001887    0.001886
             Distribution    0.000208     4.56%    0.000208    0.000208
                  Merging    0.000026     0.57%    0.000026    0.000026
         Post_merge_Total    0.000002     0.04%    0.000002    0.000001
        Reduce_PhaseSpace    0.000004     0.09%    0.000004    0.000004
    Reduce_UnbalanceRatio    0.000003     0.07%    0.000003    0.000002
        Reduce_TotalCells    0.000002     0.04%    0.000003    0.000002
         Debug_Operations    0.000003     0.07%    0.000003    0.000002
    Chemistry_Computation    0.001992    43.71%    0.001994    0.001991
               Comm_Setup    0.000002     0.04%    0.000003    0.000002
  Hash_Table_Construction    0.000028     0.61%    0.000028    0.000027
  Communication_Execution    0.000185     4.06%    0.000186    0.000185
          Rate_Assignment    0.000079     1.73%    0.000079    0.000079
       Cleanup_Statistics    0.000002     0.04%    0.000003    0.000002
====================================
                    Total    0.004560  100.00%

DILUPBiCGStab:  Solving for H2, Initial residual = 0.000062, Final residual = 0.000000, No Iterations 1
DILUPBiCGStab:  Solving for H, Initial residual = 0.001605, Final residual = 0.000000, No Iterations 1
DILUPBiCGStab:  Solving for O, Initial residual = 0.000247, Final residual = 0.000000, No Iterations 1
DILUPBiCGStab:  Solving for O2, Initial residual = 0.000007, Final residual = 0.000000, No Iterations 1
DILUPBiCGStab:  Solving for OH, Initial residual = 0.000947, Final residual = 0.000000, No Iterations 1
DILUPBiCGStab:  Solving for H2O, Initial residual = 0.000016, Final residual = 0.000000, No Iterations 1
DILUPBiCGStab:  Solving for HO2, Initial residual = 0.009527, Final residual = 0.000001, No Iterations 1
DILUPBiCGStab:  Solving for H2O2, Initial residual = 0.009449, Final residual = 0.000002, No Iterations 1
DILUPBiCGStab:  Solving for C, Initial residual = 0.000482, Final residual = 0.000000, No Iterations 1
DILUPBiCGStab:  Solving for CH, Initial residual = 0.000525, Final residual = 0.000000, No Iterations 1
DILUPBiCGStab:  Solving for CH2, Initial residual = 0.001336, Final residual = 0.000000, No Iterations 1
DILUPBiCGStab:  Solving for CH2(S), Initial residual = 0.001220, Final residual = 0.000000, No Iterations 1
DILUPBiCGStab:  Solving for CH3, Initial residual = 0.000729, Final residual = 0.000000, No Iterations 1
DILUPBiCGStab:  Solving for CH4, Initial residual = 0.000001, Final residual = 0.000000, No Iterations 1
DILUPBiCGStab:  Solving for CO, Initial residual = 0.000059, Final residual = 0.000000, No Iterations 1
DILUPBiCGStab:  Solving for CO2, Initial residual = 0.000002, Final residual = 0.000000, No Iterations 1
DILUPBiCGStab:  Solving for HCO, Initial residual = 0.000596, Final residual = 0.000000, No Iterations 1
DILUPBiCGStab:  Solving for CH2O, Initial residual = 0.001690, Final residual = 0.000000, No Iterations 1
DILUPBiCGStab:  Solving for CH2OH, Initial residual = 0.000826, Final residual = 0.000000, No Iterations 1
DILUPBiCGStab:  Solving for CH3O, Initial residual = 0.001502, Final residual = 0.000000, No Iterations 1
DILUPBiCGStab:  Solving for CH3OH, Initial residual = 0.002917, Final residual = 0.000001, No Iterations 1
DILUPBiCGStab:  Solving for C2H, Initial residual = 0.000401, Final residual = 0.000000, No Iterations 1
DILUPBiCGStab:  Solving for C2H2, Initial residual = 0.000488, Final residual = 0.000000, No Iterations 1
DILUPBiCGStab:  Solving for C2H3, Initial residual = 0.000158, Final residual = 0.000000, No Iterations 1
DILUPBiCGStab:  Solving for C2H4, Initial residual = 0.000446, Final residual = 0.000000, No Iterations 1
DILUPBiCGStab:  Solving for C2H5, Initial residual = 0.000305, Final residual = 0.000000, No Iterations 1
DILUPBiCGStab:  Solving for C2H6, Initial residual = 0.000522, Final residual = 0.000000, No Iterations 1
DILUPBiCGStab:  Solving for HCCO, Initial residual = 0.000523, Final residual = 0.000000, No Iterations 1
DILUPBiCGStab:  Solving for CH2CO, Initial residual = 0.000567, Final residual = 0.000000, No Iterations 1
DILUPBiCGStab:  Solving for HCCOH, Initial residual = 0.000851, Final residual = 0.000000, No Iterations 1
DILUPBiCGStab:  Solving for AR, Initial residual = 0.000000, Final residual = 0.000000, No Iterations 0
DILUPBiCGStab:  Solving for C3H7, Initial residual = 0.000294, Final residual = 0.000000, No Iterations 1
DILUPBiCGStab:  Solving for C3H8, Initial residual = 0.000564, Final residual = 0.000000, No Iterations 1
DILUPBiCGStab:  Solving for CH2CHO, Initial residual = 0.000369, Final residual = 0.000000, No Iterations 1
DILUPBiCGStab:  Solving for CH3CHO, Initial residual = 0.000448, Final residual = 0.000000, No Iterations 1
DILUPBiCGStab:  Solving for h, Initial residual = 0.000020, Final residual = 0.000000, No Iterations 1
min/max(T) = 291.000000, 1882.737412
DICPCG:  Solving for p, Initial residual = 0.008206, Final residual = 0.000044, No Iterations 1
diagonal:  Solving for rho, Initial residual = 0.000000, Final residual = 0.000000, No Iterations 0
time step continuity errors : sum local = 0.000000, global = -0.000000, cumulative = -0.000000
DICPCG:  Solving for p, Initial residual = 0.004629, Final residual = 0.000000, No Iterations 3
diagonal:  Solving for rho, Initial residual = 0.000000, Final residual = 0.000000, No Iterations 0
time step continuity errors : sum local = 0.000000, global = -0.000000, cumulative = -0.000000
DILUPBiCGStab:  Solving for epsilon, Initial residual = 0.000002, Final residual = 0.000000, No Iterations 1
DILUPBiCGStab:  Solving for k, Initial residual = 0.000001, Final residual = 0.000001, No Iterations 0
ExecutionTime = 0.233176 s  ClockTime = 0 s

Courant Number mean: 0.000791 max: 0.053886
deltaT = 0.000005
Time = 2.495868211e-05s

diagonal:  Solving for rho, Initial residual = 0.000000, Final residual = 0.000000, No Iterations 0
DILUPBiCGStab:  Solving for Ux, Initial residual = 0.002396, Final residual = 0.000000, No Iterations 1
DILUPBiCGStab:  Solving for Uy, Initial residual = 0.000123, Final residual = 0.000000, No Iterations 1
DILUPBiCGStab:  Solving for Uz, Initial residual = 0.000003, Final residual = 0.000000, No Iterations 1

CCM status
====================================
  acceleration ratio    phase space size     Unbalance ratio
               16.11                 321                0.17
====================================

CCM Solve Function Timing Analysis:
====================================
                     Step     Time(s)   Percent      Max(s)      Min(s)
           Initialization    0.000124     2.89%    0.000124    0.000123
            Cell_Grouping    0.001855    43.27%    0.001855    0.001855
             Distribution    0.000211     4.92%    0.000211    0.000211
                  Merging    0.000025     0.61%    0.000026    0.000025
         Post_merge_Total    0.000002     0.02%    0.000002    0.000001
        Reduce_PhaseSpace    0.000003     0.07%    0.000004    0.000003
    Reduce_UnbalanceRatio    0.000002     0.07%    0.000003    0.000002
        Reduce_TotalCells    0.000002     0.05%    0.000003    0.000002
         Debug_Operations    0.000003     0.07%    0.000003    0.000002
    Chemistry_Computation    0.001801    42.03%    0.001802    0.001801
               Comm_Setup    0.000002     0.05%    0.000002    0.000001
  Hash_Table_Construction    0.000025     0.58%    0.000025    0.000025
  Communication_Execution    0.000153     3.57%    0.000154    0.000153
          Rate_Assignment    0.000075     1.75%    0.000075    0.000075
       Cleanup_Statistics    0.000002     0.05%    0.000003    0.000002
====================================
                    Total    0.004287  100.00%

DILUPBiCGStab:  Solving for H2, Initial residual = 0.000069, Final residual = 0.000000, No Iterations 1
DILUPBiCGStab:  Solving for H, Initial residual = 0.001435, Final residual = 0.000000, No Iterations 1
DILUPBiCGStab:  Solving for O, Initial residual = 0.000279, Final residual = 0.000000, No Iterations 1
DILUPBiCGStab:  Solving for O2, Initial residual = 0.000007, Final residual = 0.000000, No Iterations 1
DILUPBiCGStab:  Solving for OH, Initial residual = 0.001012, Final residual = 0.000000, No Iterations 1
DILUPBiCGStab:  Solving for H2O, Initial residual = 0.000016, Final residual = 0.000000, No Iterations 1
DILUPBiCGStab:  Solving for HO2, Initial residual = 0.009647, Final residual = 0.000002, No Iterations 1
DILUPBiCGStab:  Solving for H2O2, Initial residual = 0.008745, Final residual = 0.000002, No Iterations 1
DILUPBiCGStab:  Solving for C, Initial residual = 0.000599, Final residual = 0.000000, No Iterations 1
DILUPBiCGStab:  Solving for CH, Initial residual = 0.000646, Final residual = 0.000000, No Iterations 1
DILUPBiCGStab:  Solving for CH2, Initial residual = 0.001590, Final residual = 0.000000, No Iterations 1
DILUPBiCGStab:  Solving for CH2(S), Initial residual = 0.001427, Final residual = 0.000000, No Iterations 1
DILUPBiCGStab:  Solving for CH3, Initial residual = 0.000703, Final residual = 0.000000, No Iterations 1
DILUPBiCGStab:  Solving for CH4, Initial residual = 0.000001, Final residual = 0.000000, No Iterations 1
DILUPBiCGStab:  Solving for CO, Initial residual = 0.000065, Final residual = 0.000000, No Iterations 1
DILUPBiCGStab:  Solving for CO2, Initial residual = 0.000002, Final residual = 0.000000, No Iterations 1
DILUPBiCGStab:  Solving for HCO, Initial residual = 0.000717, Final residual = 0.000000, No Iterations 1
DILUPBiCGStab:  Solving for CH2O, Initial residual = 0.001715, Final residual = 0.000000, No Iterations 1
DILUPBiCGStab:  Solving for CH2OH, Initial residual = 0.000960, Final residual = 0.000000, No Iterations 1
DILUPBiCGStab:  Solving for CH3O, Initial residual = 0.001267, Final residual = 0.000000, No Iterations 1
DILUPBiCGStab:  Solving for CH3OH, Initial residual = 0.002841, Final residual = 0.000001, No Iterations 1
DILUPBiCGStab:  Solving for C2H, Initial residual = 0.000156, Final residual = 0.000000, No Iterations 1
DILUPBiCGStab:  Solving for C2H2, Initial residual = 0.000495, Final residual = 0.000000, No Iterations 1
DILUPBiCGStab:  Solving for C2H3, Initial residual = 0.000279, Final residual = 0.000000, No Iterations 1
DILUPBiCGStab:  Solving for C2H4, Initial residual = 0.000417, Final residual = 0.000000, No Iterations 1
DILUPBiCGStab:  Solving for C2H5, Initial residual = 0.000344, Final residual = 0.000000, No Iterations 1
DILUPBiCGStab:  Solving for C2H6, Initial residual = 0.000445, Final residual = 0.000000, No Iterations 1
DILUPBiCGStab:  Solving for HCCO, Initial residual = 0.000191, Final residual = 0.000000, No Iterations 1
DILUPBiCGStab:  Solving for CH2CO, Initial residual = 0.000450, Final residual = 0.000000, No Iterations 1
DILUPBiCGStab:  Solving for HCCOH, Initial residual = 0.000375, Final residual = 0.000000, No Iterations 1
DILUPBiCGStab:  Solving for AR, Initial residual = 0.000000, Final residual = 0.000000, No Iterations 0
DILUPBiCGStab:  Solving for C3H7, Initial residual = 0.000326, Final residual = 0.000000, No Iterations 1
DILUPBiCGStab:  Solving for C3H8, Initial residual = 0.000431, Final residual = 0.000000, No Iterations 1
DILUPBiCGStab:  Solving for CH2CHO, Initial residual = 0.000439, Final residual = 0.000000, No Iterations 1
DILUPBiCGStab:  Solving for CH3CHO, Initial residual = 0.000423, Final residual = 0.000000, No Iterations 1
DILUPBiCGStab:  Solving for h, Initial residual = 0.000021, Final residual = 0.000000, No Iterations 1
min/max(T) = 291.000000, 1883.245935
DICPCG:  Solving for p, Initial residual = 0.008173, Final residual = 0.000070, No Iterations 1
diagonal:  Solving for rho, Initial residual = 0.000000, Final residual = 0.000000, No Iterations 0
time step continuity errors : sum local = 0.000000, global = -0.000000, cumulative = -0.000000
DICPCG:  Solving for p, Initial residual = 0.004661, Final residual = 0.000000, No Iterations 3
diagonal:  Solving for rho, Initial residual = 0.000000, Final residual = 0.000000, No Iterations 0
time step continuity errors : sum local = 0.000000, global = -0.000000, cumulative = -0.000000
DILUPBiCGStab:  Solving for epsilon, Initial residual = 0.000002, Final residual = 0.000000, No Iterations 1
DILUPBiCGStab:  Solving for k, Initial residual = 0.000001, Final residual = 0.000001, No Iterations 0
ExecutionTime = 0.255719 s  ClockTime = 0 s

Courant Number mean: 0.000950 max: 0.064516
deltaT = 0.000006
Time = 3.115041853e-05s

diagonal:  Solving for rho, Initial residual = 0.000000, Final residual = 0.000000, No Iterations 0
DILUPBiCGStab:  Solving for Ux, Initial residual = 0.003072, Final residual = 0.000001, No Iterations 1
DILUPBiCGStab:  Solving for Uy, Initial residual = 0.000147, Final residual = 0.000000, No Iterations 1
DILUPBiCGStab:  Solving for Uz, Initial residual = 0.000004, Final residual = 0.000000, No Iterations 1

CCM status
====================================
  acceleration ratio    phase space size     Unbalance ratio
               15.53                 333                0.14
====================================

CCM Solve Function Timing Analysis:
====================================
                     Step     Time(s)   Percent      Max(s)      Min(s)
           Initialization    0.000113     2.62%    0.000114    0.000112
            Cell_Grouping    0.001862    42.82%    0.001863    0.001862
             Distribution    0.000198     4.55%    0.000198    0.000197
                  Merging    0.000028     0.64%    0.000028    0.000027
         Post_merge_Total    0.000001     0.02%    0.000002    0.000001
        Reduce_PhaseSpace    0.000003     0.07%    0.000004    0.000003
    Reduce_UnbalanceRatio    0.000003     0.07%    0.000003    0.000003
        Reduce_TotalCells    0.000002     0.05%    0.000003    0.000002
         Debug_Operations    0.000002     0.07%    0.000003    0.000002
    Chemistry_Computation    0.001841    42.34%    0.001842    0.001840
               Comm_Setup    0.000003     0.05%    0.000005    0.000001
  Hash_Table_Construction    0.000034     0.78%    0.000034    0.000034
  Communication_Execution    0.000168     3.89%    0.000169    0.000168
          Rate_Assignment    0.000084     1.95%    0.000085    0.000084
       Cleanup_Statistics    0.000003     0.07%    0.000003    0.000002
====================================
                    Total    0.004348  100.00%

DILUPBiCGStab:  Solving for H2, Initial residual = 0.000080, Final residual = 0.000000, No Iterations 1
DILUPBiCGStab:  Solving for H, Initial residual = 0.001421, Final residual = 0.000000, No Iterations 1
DILUPBiCGStab:  Solving for O, Initial residual = 0.000318, Final residual = 0.000000, No Iterations 1
DILUPBiCGStab:  Solving for O2, Initial residual = 0.000007, Final residual = 0.000000, No Iterations 1
DILUPBiCGStab:  Solving for OH, Initial residual = 0.001070, Final residual = 0.000000, No Iterations 1
DILUPBiCGStab:  Solving for H2O, Initial residual = 0.000017, Final residual = 0.000000, No Iterations 1
DILUPBiCGStab:  Solving for HO2, Initial residual = 0.009608, Final residual = 0.000002, No Iterations 1
DILUPBiCGStab:  Solving for H2O2, Initial residual = 0.008114, Final residual = 0.000003, No Iterations 1
DILUPBiCGStab:  Solving for C, Initial residual = 0.000773, Final residual = 0.000000, No Iterations 1
DILUPBiCGStab:  Solving for CH, Initial residual = 0.000836, Final residual = 0.000000, No Iterations 1
DILUPBiCGStab:  Solving for CH2, Initial residual = 0.001921, Final residual = 0.000000, No Iterations 1
DILUPBiCGStab:  Solving for CH2(S), Initial residual = 0.001711, Final residual = 0.000000, No Iterations 1
DILUPBiCGStab:  Solving for CH3, Initial residual = 0.000707, Final residual = 0.000000, No Iterations 1
DILUPBiCGStab:  Solving for CH4, Initial residual = 0.000001, Final residual = 0.000000, No Iterations 1
DILUPBiCGStab:  Solving for CO, Initial residual = 0.000071, Final residual = 0.000000, No Iterations 1
DILUPBiCGStab:  Solving for CO2, Initial residual = 0.000002, Final residual = 0.000000, No Iterations 1
DILUPBiCGStab:  Solving for HCO, Initial residual = 0.000843, Final residual = 0.000000, No Iterations 1
DILUPBiCGStab:  Solving for CH2O, Initial residual = 0.001744, Final residual = 0.000001, No Iterations 1
DILUPBiCGStab:  Solving for CH2OH, Initial residual = 0.001137, Final residual = 0.000000, No Iterations 1
DILUPBiCGStab:  Solving for CH3O, Initial residual = 0.001070, Final residual = 0.000000, No Iterations 1
DILUPBiCGStab:  Solving for CH3OH, Initial residual = 0.002771, Final residual = 0.000001, No Iterations 1
DILUPBiCGStab:  Solving for C2H, Initial residual = 0.000458, Final residual = 0.000000, No Iterations 1
DILUPBiCGStab:  Solving for C2H2, Initial residual = 0.000623, Final residual = 0.000000, No Iterations 1
DILUPBiCGStab:  Solving for C2H3, Initial residual = 0.000358, Final residual = 0.000000, No Iterations 1
DILUPBiCGStab:  Solving for C2H4, Initial residual = 0.000388, Final residual = 0.000000, No Iterations 1
DILUPBiCGStab:  Solving for C2H5, Initial residual = 0.000371, Final residual = 0.000000, No Iterations 1
DILUPBiCGStab:  Solving for C2H6, Initial residual = 0.000388, Final residual = 0.000000, No Iterations 1
DILUPBiCGStab:  Solving for HCCO, Initial residual = 0.000301, Final residual = 0.000000, No Iterations 1
DILUPBiCGStab:  Solving for CH2CO, Initial residual = 0.000515, Final residual = 0.000000, No Iterations 1
DILUPBiCGStab:  Solving for HCCOH, Initial residual = 0.000327, Final residual = 0.000000, No Iterations 1
DILUPBiCGStab:  Solving for AR, Initial residual = 0.000000, Final residual = 0.000000, No Iterations 0
DILUPBiCGStab:  Solving for C3H7, Initial residual = 0.000321, Final residual = 0.000000, No Iterations 1
DILUPBiCGStab:  Solving for C3H8, Initial residual = 0.000334, Final residual = 0.000000, No Iterations 1
DILUPBiCGStab:  Solving for CH2CHO, Initial residual = 0.000483, Final residual = 0.000000, No Iterations 1
DILUPBiCGStab:  Solving for CH3CHO, Initial residual = 0.000399, Final residual = 0.000000, No Iterations 1
DILUPBiCGStab:  Solving for h, Initial residual = 0.000022, Final residual = 0.000000, No Iterations 1
min/max(T) = 291.000000, 1884.697754
DICPCG:  Solving for p, Initial residual = 0.008194, Final residual = 0.000006, No Iterations 2
diagonal:  Solving for rho, Initial residual = 0.000000, Final residual = 0.000000, No Iterations 0
time step continuity errors : sum local = 0.000000, global = 0.000000, cumulative = -0.000000
DICPCG:  Solving for p, Initial residual = 0.004739, Final residual = 0.000000, No Iterations 3
diagonal:  Solving for rho, Initial residual = 0.000000, Final residual = 0.000000, No Iterations 0
time step continuity errors : sum local = 0.000000, global = 0.000000, cumulative = -0.000000
DILUPBiCGStab:  Solving for epsilon, Initial residual = 0.000003, Final residual = 0.000000, No Iterations 1
DILUPBiCGStab:  Solving for k, Initial residual = 0.000001, Final residual = 0.000000, No Iterations 1
ExecutionTime = 0.276310 s  ClockTime = 0 s

Courant Number mean: 0.001141 max: 0.081059
deltaT = 0.000007
Time = 3.858050224e-05s

diagonal:  Solving for rho, Initial residual = 0.000000, Final residual = 0.000000, No Iterations 0
DILUPBiCGStab:  Solving for Ux, Initial residual = 0.003822, Final residual = 0.000001, No Iterations 1
DILUPBiCGStab:  Solving for Uy, Initial residual = 0.000177, Final residual = 0.000000, No Iterations 1
DILUPBiCGStab:  Solving for Uz, Initial residual = 0.000005, Final residual = 0.000000, No Iterations 1

CCM status
====================================
  acceleration ratio    phase space size     Unbalance ratio
               15.34                 337                0.18
====================================

CCM Solve Function Timing Analysis:
====================================
                     Step     Time(s)   Percent      Max(s)      Min(s)
           Initialization    0.000141     3.14%    0.000142    0.000140
            Cell_Grouping    0.001904    42.67%    0.001906    0.001904
             Distribution    0.000212     4.75%    0.000213    0.000212
                  Merging    0.000024     0.56%    0.000025    0.000024
         Post_merge_Total    0.000002     0.02%    0.000002    0.000001
        Reduce_PhaseSpace    0.000003     0.07%    0.000004    0.000003
    Reduce_UnbalanceRatio    0.000002     0.07%    0.000003    0.000002
        Reduce_TotalCells    0.000002     0.04%    0.000003    0.000002
         Debug_Operations    0.000003     0.07%    0.000003    0.000002
    Chemistry_Computation    0.001908    42.76%    0.001908    0.001908
               Comm_Setup    0.000002     0.04%    0.000002    0.000001
  Hash_Table_Construction    0.000024     0.56%    0.000025    0.000024
  Communication_Execution    0.000154     3.45%    0.000155    0.000153
          Rate_Assignment    0.000078     1.75%    0.000078    0.000077
       Cleanup_Statistics    0.000002     0.04%    0.000003    0.000002
====================================
                    Total    0.004462  100.00%

DILUPBiCGStab:  Solving for H2, Initial residual = 0.000090, Final residual = 0.000000, No Iterations 1
DILUPBiCGStab:  Solving for H, Initial residual = 0.001281, Final residual = 0.000000, No Iterations 1
DILUPBiCGStab:  Solving for O, Initial residual = 0.000362, Final residual = 0.000000, No Iterations 1
DILUPBiCGStab:  Solving for O2, Initial residual = 0.000006, Final residual = 0.000000, No Iterations 1
DILUPBiCGStab:  Solving for OH, Initial residual = 0.001110, Final residual = 0.000000, No Iterations 1
DILUPBiCGStab:  Solving for H2O, Initial residual = 0.000018, Final residual = 0.000000, No Iterations 1
DILUPBiCGStab:  Solving for HO2, Initial residual = 0.009358, Final residual = 0.000003, No Iterations 1
DILUPBiCGStab:  Solving for H2O2, Initial residual = 0.007451, Final residual = 0.000003, No Iterations 1
DILUPBiCGStab:  Solving for C, Initial residual = 0.000909, Final residual = 0.000000, No Iterations 1
DILUPBiCGStab:  Solving for CH, Initial residual = 0.000968, Final residual = 0.000000, No Iterations 1
DILUPBiCGStab:  Solving for CH2, Initial residual = 0.002505, Final residual = 0.000001, No Iterations 1
DILUPBiCGStab:  Solving for CH2(S), Initial residual = 0.002167, Final residual = 0.000000, No Iterations 1
DILUPBiCGStab:  Solving for CH3, Initial residual = 0.000795, Final residual = 0.000000, No Iterations 1
DILUPBiCGStab:  Solving for CH4, Initial residual = 0.000002, Final residual = 0.000000, No Iterations 1
DILUPBiCGStab:  Solving for CO, Initial residual = 0.000078, Final residual = 0.000000, No Iterations 1
DILUPBiCGStab:  Solving for CO2, Initial residual = 0.000002, Final residual = 0.000000, No Iterations 1
DILUPBiCGStab:  Solving for HCO, Initial residual = 0.000944, Final residual = 0.000000, No Iterations 1
DILUPBiCGStab:  Solving for CH2O, Initial residual = 0.001764, Final residual = 0.000001, No Iterations 1
DILUPBiCGStab:  Solving for CH2OH, Initial residual = 0.001261, Final residual = 0.000000, No Iterations 1
DILUPBiCGStab:  Solving for CH3O, Initial residual = 0.000903, Final residual = 0.000000, No Iterations 1
DILUPBiCGStab:  Solving for CH3OH, Initial residual = 0.002690, Final residual = 0.000001, No Iterations 1
DILUPBiCGStab:  Solving for C2H, Initial residual = 0.000795, Final residual = 0.000000, No Iterations 1
DILUPBiCGStab:  Solving for C2H2, Initial residual = 0.000688, Final residual = 0.000000, No Iterations 1
DILUPBiCGStab:  Solving for C2H3, Initial residual = 0.000373, Final residual = 0.000000, No Iterations 1
DILUPBiCGStab:  Solving for C2H4, Initial residual = 0.000362, Final residual = 0.000000, No Iterations 1
DILUPBiCGStab:  Solving for C2H5, Initial residual = 0.000378, Final residual = 0.000000, No Iterations 1
DILUPBiCGStab:  Solving for C2H6, Initial residual = 0.000344, Final residual = 0.000000, No Iterations 1
DILUPBiCGStab:  Solving for HCCO, Initial residual = 0.000624, Final residual = 0.000000, No Iterations 1
DILUPBiCGStab:  Solving for CH2CO, Initial residual = 0.000599, Final residual = 0.000000, No Iterations 1
DILUPBiCGStab:  Solving for HCCOH, Initial residual = 0.000698, Final residual = 0.000000, No Iterations 1
DILUPBiCGStab:  Solving for AR, Initial residual = 0.000000, Final residual = 0.000000, No Iterations 0
DILUPBiCGStab:  Solving for C3H7, Initial residual = 0.000287, Final residual = 0.000000, No Iterations 1
DILUPBiCGStab:  Solving for C3H8, Initial residual = 0.000264, Final residual = 0.000000, No Iterations 1
DILUPBiCGStab:  Solving for CH2CHO, Initial residual = 0.000485, Final residual = 0.000000, No Iterations 1
DILUPBiCGStab:  Solving for CH3CHO, Initial residual = 0.000371, Final residual = 0.000000, No Iterations 1
DILUPBiCGStab:  Solving for h, Initial residual = 0.000022, Final residual = 0.000000, No Iterations 1
min/max(T) = 291.000000, 1886.039129
DICPCG:  Solving for p, Initial residual = 0.008385, Final residual = 0.000012, No Iterations 2
diagonal:  Solving for rho, Initial residual = 0.000000, Final residual = 0.000000, No Iterations 0
time step continuity errors : sum local = 0.000000, global = 0.000000, cumulative = -0.000000
DICPCG:  Solving for p, Initial residual = 0.004932, Final residual = 0.000001, No Iterations 3
diagonal:  Solving for rho, Initial residual = 0.000000, Final residual = 0.000000, No Iterations 0
time step continuity errors : sum local = 0.000000, global = 0.000000, cumulative = -0.000000
DILUPBiCGStab:  Solving for epsilon, Initial residual = 0.000003, Final residual = 0.000000, No Iterations 1
DILUPBiCGStab:  Solving for k, Initial residual = 0.000002, Final residual = 0.000000, No Iterations 1
ExecutionTime = 0.297241 s  ClockTime = 0 s

Courant Number mean: 0.001370 max: 0.110143
deltaT = 0.000009
Time = 4.749660269e-05s

diagonal:  Solving for rho, Initial residual = 0.000000, Final residual = 0.000000, No Iterations 0
DILUPBiCGStab:  Solving for Ux, Initial residual = 0.004518, Final residual = 0.000001, No Iterations 1
DILUPBiCGStab:  Solving for Uy, Initial residual = 0.000208, Final residual = 0.000000, No Iterations 1
DILUPBiCGStab:  Solving for Uz, Initial residual = 0.000006, Final residual = 0.000000, No Iterations 1

CCM status
====================================
  acceleration ratio    phase space size     Unbalance ratio
               14.73                 351                0.20
====================================

CCM Solve Function Timing Analysis:
====================================
                     Step     Time(s)   Percent      Max(s)      Min(s)
[...]
DILUPBiCGStab:  Solving for Ux, Initial residual = 0.001149, Final residual = 0.000001, No Iterations 1
DILUPBiCGStab:  Solving for Uy, Initial residual = 0.000579, Final residual = 0.000000, No Iterations 1
DILUPBiCGStab:  Solving for Uz, Initial residual = 0.000052, Final residual = 0.000000, No Iterations 1

CCM status
====================================
  acceleration ratio    phase space size     Unbalance ratio
                9.38                 551                0.16
====================================

CCM Solve Function Timing Analysis:
====================================
                     Step     Time(s)   Percent      Max(s)      Min(s)
           Initialization    0.000157     1.92%    0.000158    0.000156
            Cell_Grouping    0.001955    23.95%    0.001956    0.001950
             Distribution    0.000288     3.54%    0.000289    0.000288
                  Merging    0.000043     0.53%    0.000043    0.000042
         Post_merge_Total    0.000002     0.02%    0.000002    0.000001
        Reduce_PhaseSpace    0.000006     0.07%    0.000007    0.000006
    Reduce_UnbalanceRatio    0.000002     0.04%    0.000003    0.000002
        Reduce_TotalCells    0.000004     0.04%    0.000006    0.000002
         Debug_Operations    0.000003     0.04%    0.000004    0.000002
    Chemistry_Computation    0.005369    65.74%    0.005371    0.005368
               Comm_Setup    0.000002     0.02%    0.000002    0.000002
  Hash_Table_Construction    0.000042     0.50%    0.000042    0.000041
  Communication_Execution    0.000207     2.53%    0.000208    0.000207
          Rate_Assignment    0.000084     1.03%    0.000084    0.000084
       Cleanup_Statistics    0.000002     0.02%    0.000003    0.000002
====================================
                    Total    0.008168  100.00%

DILUPBiCGStab:  Solving for H2, Initial residual = 0.000036, Final residual = 0.000000, No Iterations 1
DILUPBiCGStab:  Solving for H, Initial residual = 0.000055, Final residual = 0.000000, No Iterations 1
DILUPBiCGStab:  Solving for O, Initial residual = 0.000072, Final residual = 0.000000, No Iterations 1
DILUPBiCGStab:  Solving for O2, Initial residual = 0.000021, Final residual = 0.000000, No Iterations 1
DILUPBiCGStab:  Solving for OH, Initial residual = 0.000038, Final residual = 0.000000, No Iterations 1
DILUPBiCGStab:  Solving for H2O, Initial residual = 0.000026, Final residual = 0.000000, No Iterations 1
DILUPBiCGStab:  Solving for HO2, Initial residual = 0.000224, Final residual = 0.000001, No Iterations 1
DILUPBiCGStab:  Solving for H2O2, Initial residual = 0.000064, Final residual = 0.000000, No Iterations 1
DILUPBiCGStab:  Solving for C, Initial residual = 0.000100, Final residual = 0.000000, No Iterations 1
DILUPBiCGStab:  Solving for CH, Initial residual = 0.000173, Final residual = 0.000001, No Iterations 1
DILUPBiCGStab:  Solving for CH2, Initial residual = 0.000166, Final residual = 0.000001, No Iterations 1
DILUPBiCGStab:  Solving for CH2(S), Initial residual = 0.000195, Final residual = 0.000001, No Iterations 1
DILUPBiCGStab:  Solving for CH3, Initial residual = 0.000075, Final residual = 0.000000, No Iterations 1
DILUPBiCGStab:  Solving for CH4, Initial residual = 0.000006, Final residual = 0.000000, No Iterations 1
DILUPBiCGStab:  Solving for CO, Initial residual = 0.000046, Final residual = 0.000000, No Iterations 1
DILUPBiCGStab:  Solving for CO2, Initial residual = 0.000023, Final residual = 0.000000, No Iterations 1
DILUPBiCGStab:  Solving for HCO, Initial residual = 0.000414, Final residual = 0.000002, No Iterations 1
DILUPBiCGStab:  Solving for CH2O, Initial residual = 0.000076, Final residual = 0.000000, No Iterations 1
DILUPBiCGStab:  Solving for CH2OH, Initial residual = 0.000232, Final residual = 0.000001, No Iterations 1
DILUPBiCGStab:  Solving for CH3O, Initial residual = 0.000327, Final residual = 0.000001, No Iterations 1
DILUPBiCGStab:  Solving for CH3OH, Initial residual = 0.000056, Final residual = 0.000000, No Iterations 1
DILUPBiCGStab:  Solving for C2H, Initial residual = 0.000075, Final residual = 0.000000, No Iterations 1
DILUPBiCGStab:  Solving for C2H2, Initial residual = 0.000041, Final residual = 0.000000, No Iterations 1
DILUPBiCGStab:  Solving for C2H3, Initial residual = 0.000159, Final residual = 0.000001, No Iterations 1
DILUPBiCGStab:  Solving for C2H4, Initial residual = 0.000045, Final residual = 0.000000, No Iterations 1
DILUPBiCGStab:  Solving for C2H5, Initial residual = 0.000202, Final residual = 0.000001, No Iterations 1
DILUPBiCGStab:  Solving for C2H6, Initial residual = 0.000045, Final residual = 0.000000, No Iterations 1
DILUPBiCGStab:  Solving for HCCO, Initial residual = 0.000153, Final residual = 0.000001, No Iterations 1
DILUPBiCGStab:  Solving for CH2CO, Initial residual = 0.000048, Final residual = 0.000000, No Iterations 1
DILUPBiCGStab:  Solving for HCCOH, Initial residual = 0.000045, Final residual = 0.000000, No Iterations 1
DILUPBiCGStab:  Solving for AR, Initial residual = 0.000000, Final residual = 0.000000, No Iterations 0
DILUPBiCGStab:  Solving for C3H7, Initial residual = 0.000254, Final residual = 0.000001, No Iterations 1
DILUPBiCGStab:  Solving for C3H8, Initial residual = 0.000075, Final residual = 0.000000, No Iterations 1
DILUPBiCGStab:  Solving for CH2CHO, Initial residual = 0.000527, Final residual = 0.000002, No Iterations 1
DILUPBiCGStab:  Solving for CH3CHO, Initial residual = 0.000169, Final residual = 0.000001, No Iterations 1
DILUPBiCGStab:  Solving for h, Initial residual = 0.000025, Final residual = 0.000000, No Iterations 1
min/max(T) = 291.000000, 1981.046039
DICPCG:  Solving for p, Initial residual = 0.008703, Final residual = 0.000044, No Iterations 6
diagonal:  Solving for rho, Initial residual = 0.000000, Final residual = 0.000000, No Iterations 0
time step continuity errors : sum local = 0.000000, global = 0.000000, cumulative = -0.000000
DICPCG:  Solving for p, Initial residual = 0.005192, Final residual = 0.000001, No Iterations 11
diagonal:  Solving for rho, Initial residual = 0.000000, Final residual = 0.000000, No Iterations 0
time step continuity errors : sum local = 0.000000, global = -0.000000, cumulative = -0.000000
DILUPBiCGStab:  Solving for epsilon, Initial residual = 0.000022, Final residual = 0.000000, No Iterations 1
DILUPBiCGStab:  Solving for k, Initial residual = 0.000023, Final residual = 0.000000, No Iterations 1
ExecutionTime = 13.351869 s  ClockTime = 13 s

Courant Number mean: 0.008641 max: 0.600163
deltaT = 0.000043
Time = 0.02494083609s

diagonal:  Solving for rho, Initial residual = 0.000000, Final residual = 0.000000, No Iterations 0
DILUPBiCGStab:  Solving for Ux, Initial residual = 0.001171, Final residual = 0.000001, No Iterations 1
DILUPBiCGStab:  Solving for Uy, Initial residual = 0.000571, Final residual = 0.000000, No Iterations 1
DILUPBiCGStab:  Solving for Uz, Initial residual = 0.000052, Final residual = 0.000000, No Iterations 1

CCM status
====================================
  acceleration ratio    phase space size     Unbalance ratio
                9.61                 538                0.14
====================================

CCM Solve Function Timing Analysis:
====================================
                     Step     Time(s)   Percent      Max(s)      Min(s)
           Initialization    0.000214     1.86%    0.000215    0.000214
            Cell_Grouping    0.002750    23.95%    0.002751    0.002749
             Distribution    0.000439     3.82%    0.000440    0.000439
                  Merging    0.000053     0.45%    0.000053    0.000052
         Post_merge_Total    0.000002     0.02%    0.000003    0.000002
        Reduce_PhaseSpace    0.000005     0.04%    0.000005    0.000004
    Reduce_UnbalanceRatio    0.000004     0.03%    0.000004    0.000003
        Reduce_TotalCells    0.000003     0.03%    0.000004    0.000003
         Debug_Operations    0.000004     0.03%    0.000004    0.000003
    Chemistry_Computation    0.007467    65.02%    0.007469    0.007463
               Comm_Setup    0.000004     0.03%    0.000004    0.000003
  Hash_Table_Construction    0.000078     0.68%    0.000078    0.000077
  Communication_Execution    0.000348     3.03%    0.000349    0.000347
          Rate_Assignment    0.000111     0.97%    0.000112    0.000110
       Cleanup_Statistics    0.000003     0.03%    0.000004    0.000003
====================================
                    Total    0.011485  100.00%

DILUPBiCGStab:  Solving for H2, Initial residual = 0.000038, Final residual = 0.000000, No Iterations 1
DILUPBiCGStab:  Solving for H, Initial residual = 0.000087, Final residual = 0.000000, No Iterations 1
DILUPBiCGStab:  Solving for O, Initial residual = 0.000105, Final residual = 0.000000, No Iterations 1
DILUPBiCGStab:  Solving for O2, Initial residual = 0.000021, Final residual = 0.000000, No Iterations 1
DILUPBiCGStab:  Solving for OH, Initial residual = 0.000049, Final residual = 0.000000, No Iterations 1
DILUPBiCGStab:  Solving for H2O, Initial residual = 0.000027, Final residual = 0.000000, No Iterations 1
DILUPBiCGStab:  Solving for HO2, Initial residual = 0.000261, Final residual = 0.000001, No Iterations 1
DILUPBiCGStab:  Solving for H2O2, Initial residual = 0.000063, Final residual = 0.000000, No Iterations 1
DILUPBiCGStab:  Solving for C, Initial residual = 0.000300, Final residual = 0.000002, No Iterations 1
DILUPBiCGStab:  Solving for CH, Initial residual = 0.000546, Final residual = 0.000004, No Iterations 1
DILUPBiCGStab:  Solving for CH2, Initial residual = 0.000232, Final residual = 0.000001, No Iterations 1
DILUPBiCGStab:  Solving for CH2(S), Initial residual = 0.000293, Final residual = 0.000002, No Iterations 1
DILUPBiCGStab:  Solving for CH3, Initial residual = 0.000092, Final residual = 0.000000, No Iterations 1
DILUPBiCGStab:  Solving for CH4, Initial residual = 0.000006, Final residual = 0.000000, No Iterations 1
DILUPBiCGStab:  Solving for CO, Initial residual = 0.000046, Final residual = 0.000000, No Iterations 1
DILUPBiCGStab:  Solving for CO2, Initial residual = 0.000024, Final residual = 0.000000, No Iterations 1
DILUPBiCGStab:  Solving for HCO, Initial residual = 0.000373, Final residual = 0.000002, No Iterations 1
DILUPBiCGStab:  Solving for CH2O, Initial residual = 0.000082, Final residual = 0.000000, No Iterations 1
DILUPBiCGStab:  Solving for CH2OH, Initial residual = 0.000272, Final residual = 0.000002, No Iterations 1
DILUPBiCGStab:  Solving for CH3O, Initial residual = 0.000402, Final residual = 0.000001, No Iterations 1
DILUPBiCGStab:  Solving for CH3OH, Initial residual = 0.000059, Final residual = 0.000000, No Iterations 1
DILUPBiCGStab:  Solving for C2H, Initial residual = 0.000185, Final residual = 0.000001, No Iterations 1
DILUPBiCGStab:  Solving for C2H2, Initial residual = 0.000035, Final residual = 0.000000, No Iterations 1
DILUPBiCGStab:  Solving for C2H3, Initial residual = 0.000096, Final residual = 0.000001, No Iterations 1
DILUPBiCGStab:  Solving for C2H4, Initial residual = 0.000051, Final residual = 0.000000, No Iterations 1
DILUPBiCGStab:  Solving for C2H5, Initial residual = 0.000257, Final residual = 0.000001, No Iterations 1
DILUPBiCGStab:  Solving for C2H6, Initial residual = 0.000044, Final residual = 0.000000, No Iterations 1
DILUPBiCGStab:  Solving for HCCO, Initial residual = 0.000187, Final residual = 0.000001, No Iterations 1
DILUPBiCGStab:  Solving for CH2CO, Initial residual = 0.000061, Final residual = 0.000000, No Iterations 1
DILUPBiCGStab:  Solving for HCCOH, Initial residual = 0.000042, Final residual = 0.000000, No Iterations 1
DILUPBiCGStab:  Solving for AR, Initial residual = 0.000000, Final residual = 0.000000, No Iterations 0
DILUPBiCGStab:  Solving for C3H7, Initial residual = 0.000306, Final residual = 0.000001, No Iterations 1
DILUPBiCGStab:  Solving for C3H8, Initial residual = 0.000073, Final residual = 0.000000, No Iterations 1
DILUPBiCGStab:  Solving for CH2CHO, Initial residual = 0.000646, Final residual = 0.000002, No Iterations 1
DILUPBiCGStab:  Solving for CH3CHO, Initial residual = 0.000255, Final residual = 0.000001, No Iterations 1
DILUPBiCGStab:  Solving for h, Initial residual = 0.000026, Final residual = 0.000000, No Iterations 1
min/max(T) = 291.000000, 1981.227428
DICPCG:  Solving for p, Initial residual = 0.008724, Final residual = 0.000048, No Iterations 6
diagonal:  Solving for rho, Initial residual = 0.000000, Final residual = 0.000000, No Iterations 0
time step continuity errors : sum local = 0.000000, global = 0.000000, cumulative = -0.000000
DICPCG:  Solving for p, Initial residual = 0.005198, Final residual = 0.000001, No Iterations 13
diagonal:  Solving for rho, Initial residual = 0.000000, Final residual = 0.000000, No Iterations 0
time step continuity errors : sum local = 0.000000, global = -0.000000, cumulative = -0.000000
DILUPBiCGStab:  Solving for epsilon, Initial residual = 0.000022, Final residual = 0.000000, No Iterations 1
DILUPBiCGStab:  Solving for k, Initial residual = 0.000023, Final residual = 0.000000, No Iterations 1
ExecutionTime = 13.385286 s  ClockTime = 13 s

Courant Number mean: 0.008638 max: 0.599561
deltaT = 0.000044
Time = 0.02498436188s

diagonal:  Solving for rho, Initial residual = 0.000000, Final residual = 0.000000, No Iterations 0
DILUPBiCGStab:  Solving for Ux, Initial residual = 0.001220, Final residual = 0.000001, No Iterations 1
DILUPBiCGStab:  Solving for Uy, Initial residual = 0.000573, Final residual = 0.000000, No Iterations 1
DILUPBiCGStab:  Solving for Uz, Initial residual = 0.000053, Final residual = 0.000000, No Iterations 1

CCM status
====================================
  acceleration ratio    phase space size     Unbalance ratio
                9.49                 545                0.09
====================================

CCM Solve Function Timing Analysis:
====================================
                     Step     Time(s)   Percent      Max(s)      Min(s)
           Initialization    0.000241     2.44%    0.000241    0.000239
            Cell_Grouping    0.002851    29.07%    0.002851    0.002850
             Distribution    0.000522     5.32%    0.000523    0.000522
                  Merging    0.000054     0.54%    0.000054    0.000053
         Post_merge_Total    0.000002     0.03%    0.000003    0.000002
        Reduce_PhaseSpace    0.000005     0.05%    0.000006    0.000005
    Reduce_UnbalanceRatio    0.000004     0.03%    0.000005    0.000003
        Reduce_TotalCells    0.000003     0.03%    0.000004    0.000003
         Debug_Operations    0.000003     0.03%    0.000004    0.000002
    Chemistry_Computation    0.005730    58.44%    0.005732    0.005729
               Comm_Setup    0.000003     0.02%    0.000003    0.000002
  Hash_Table_Construction    0.000046     0.47%    0.000047    0.000046
  Communication_Execution    0.000250     2.55%    0.000250    0.000250
          Rate_Assignment    0.000094     0.96%    0.000094    0.000093
       Cleanup_Statistics    0.000003     0.02%    0.000003    0.000002
====================================
                    Total    0.009808  100.00%

DILUPBiCGStab:  Solving for H2, Initial residual = 0.000038, Final residual = 0.000000, No Iterations 1
DILUPBiCGStab:  Solving for H, Initial residual = 0.000130, Final residual = 0.000001, No Iterations 1
DILUPBiCGStab:  Solving for O, Initial residual = 0.000139, Final residual = 0.000000, No Iterations 1
DILUPBiCGStab:  Solving for O2, Initial residual = 0.000022, Final residual = 0.000000, No Iterations 1
DILUPBiCGStab:  Solving for OH, Initial residual = 0.000066, Final residual = 0.000000, No Iterations 1
DILUPBiCGStab:  Solving for H2O, Initial residual = 0.000027, Final residual = 0.000000, No Iterations 1
DILUPBiCGStab:  Solving for HO2, Initial residual = 0.000278, Final residual = 0.000001, No Iterations 1
DILUPBiCGStab:  Solving for H2O2, Initial residual = 0.000063, Final residual = 0.000000, No Iterations 1
DILUPBiCGStab:  Solving for C, Initial residual = 0.000420, Final residual = 0.000003, No Iterations 1
DILUPBiCGStab:  Solving for CH, Initial residual = 0.000256, Final residual = 0.000002, No Iterations 1
DILUPBiCGStab:  Solving for CH2, Initial residual = 0.000181, Final residual = 0.000001, No Iterations 1
DILUPBiCGStab:  Solving for CH2(S), Initial residual = 0.000204, Final residual = 0.000001, No Iterations 1
DILUPBiCGStab:  Solving for CH3, Initial residual = 0.000117, Final residual = 0.000001, No Iterations 1
DILUPBiCGStab:  Solving for CH4, Initial residual = 0.000006, Final residual = 0.000000, No Iterations 1
DILUPBiCGStab:  Solving for CO, Initial residual = 0.000046, Final residual = 0.000000, No Iterations 1
DILUPBiCGStab:  Solving for CO2, Initial residual = 0.000025, Final residual = 0.000000, No Iterations 1
DILUPBiCGStab:  Solving for HCO, Initial residual = 0.000440, Final residual = 0.000002, No Iterations 1
DILUPBiCGStab:  Solving for CH2O, Initial residual = 0.000082, Final residual = 0.000000, No Iterations 1
DILUPBiCGStab:  Solving for CH2OH, Initial residual = 0.000259, Final residual = 0.000001, No Iterations 1
DILUPBiCGStab:  Solving for CH3O, Initial residual = 0.000433, Final residual = 0.000001, No Iterations 1
DILUPBiCGStab:  Solving for CH3OH, Initial residual = 0.000057, Final residual = 0.000000, No Iterations 1
DILUPBiCGStab:  Solving for C2H, Initial residual = 0.000093, Final residual = 0.000001, No Iterations 1
DILUPBiCGStab:  Solving for C2H2, Initial residual = 0.000041, Final residual = 0.000000, No Iterations 1
DILUPBiCGStab:  Solving for C2H3, Initial residual = 0.000190, Final residual = 0.000001, No Iterations 1
DILUPBiCGStab:  Solving for C2H4, Initial residual = 0.000048, Final residual = 0.000000, No Iterations 1
DILUPBiCGStab:  Solving for C2H5, Initial residual = 0.000226, Final residual = 0.000001, No Iterations 1
DILUPBiCGStab:  Solving for C2H6, Initial residual = 0.000041, Final residual = 0.000000, No Iterations 1
DILUPBiCGStab:  Solving for HCCO, Initial residual = 0.000161, Final residual = 0.000001, No Iterations 1
DILUPBiCGStab:  Solving for CH2CO, Initial residual = 0.000064, Final residual = 0.000000, No Iterations 1
DILUPBiCGStab:  Solving for HCCOH, Initial residual = 0.000047, Final residual = 0.000000, No Iterations 1
DILUPBiCGStab:  Solving for AR, Initial residual = 0.000000, Final residual = 0.000000, No Iterations 0
DILUPBiCGStab:  Solving for C3H7, Initial residual = 0.000276, Final residual = 0.000001, No Iterations 1
DILUPBiCGStab:  Solving for C3H8, Initial residual = 0.000068, Final residual = 0.000000, No Iterations 1
DILUPBiCGStab:  Solving for CH2CHO, Initial residual = 0.000687, Final residual = 0.000003, No Iterations 1
DILUPBiCGStab:  Solving for CH3CHO, Initial residual = 0.000233, Final residual = 0.000001, No Iterations 1
DILUPBiCGStab:  Solving for h, Initial residual = 0.000026, Final residual = 0.000000, No Iterations 1
min/max(T) = 291.000000, 1981.394816
DICPCG:  Solving for p, Initial residual = 0.009058, Final residual = 0.000035, No Iterations 6
diagonal:  Solving for rho, Initial residual = 0.000000, Final residual = 0.000000, No Iterations 0
time step continuity errors : sum local = 0.000000, global = 0.000000, cumulative = -0.000000
DICPCG:  Solving for p, Initial residual = 0.005419, Final residual = 0.000001, No Iterations 13
diagonal:  Solving for rho, Initial residual = 0.000000, Final residual = 0.000000, No Iterations 0
time step continuity errors : sum local = 0.000000, global = -0.000000, cumulative = -0.000000
DILUPBiCGStab:  Solving for epsilon, Initial residual = 0.000022, Final residual = 0.000000, No Iterations 1
DILUPBiCGStab:  Solving for k, Initial residual = 0.000023, Final residual = 0.000000, No Iterations 1
ExecutionTime = 13.464841 s  ClockTime = 14 s

End

Finalising parallel run
